<routes>
        <vType id="type1" lcStrategic="100" lcKeepRight="100" lcSpeedGain="100" lcCooperative="1" lcSublane="100" />
    <route id="rse4235" edges="619523290#0 619523290#1 619523288 61645695 628341438#0 628341438#1" />
    <route id="rnw4235" edges="-628341438#1 -628341438#0 gneE6 619523287#0.17 619523287#1" />
    <route id="rnorth4219" edges="620377515  122089525 122089525.34 620377496 620377502#0 620377502#1 620377501#0" />
    <route id="rsouth4219" edges="620377506 620377506.61 28597169 620377494 547625725" />
    <route id="rsouth4220" edges="gneE10.441 gneE73 gneE79 gneE41" />
    <route id="rnorth4221" edges="-620463733 -620377511 -112543664 28573008 547793367 620377512 28573048 669665014 669665015#1 28594060#0 28594060#1 28594060#2 28594060#3 28594060#4" />
    <route id="rsouth4221" edges="-28594060#4 -28594060#3 -28594060#2 -28594060#1 -28594060#0 669665013 669665011 7635630#0 7635630#1 207149704#0 207149704#1 112543664 620377510 620463733" />
    <route id="rne4221" edges="-620463733 -620377511 -112543664 28573008 547793367 620377512 7637388#0 7637388#1 28573015#0 28573015#1 28573015#2 28573015#3 28573015#4 28573015#5 28573015#6" />
    <route id="rse4221" edges="-28594060#4 -28594060#3 -28594060#2 -28594060#1 -28594060#0 669665013 669665011 7635630#0 28572986 7637388#1 28573015#0 28573015#1 28573015#2 28573015#3 28573015#4 28573015#5 28573015#6" />
    <route id="rnw4221" edges="-28573015#6 -28573015#5 -28573015#4 -28573015#3 -28573015#2 -28573015#1 -28573015#0 28573025 28573025.46 28573025.65 28573048 669665014 669665015#1 28594060#0 28594060#1 28594060#2 28594060#3 28594060#4" />
    <route id="r4235e4219n" edges="619523290#0 619523290#1 619523288 619526570#0 619526570#1 620377514#1 619526569#1 619526568 619526567 gneE1 gneE1.31 620377502#0 620377502#1 620377501#0" />
    <route id="r4235n4219n" edges="-628341438#1 -628341438#0 -61645695 619526570#0 619526570#1 620377514#1 619526569#1 619526568 619526567 gneE1 gneE1.31 620377502#0 620377502#1 620377501#0" />
    <route id="r4235e4219s" edges="619523290#0 619523290#1 619523288 619526570#0 619526570#1 620377514#1 619526569#1 619526568 619526567 619526566 28597169 620377494 547625725" />
    <route id="r4235n4219s" edges="-628341438#1 -628341438#0 -61645695 619526570#0 619526570#1 620377514#1 619526569#1 619526568 619526567 619526566 28597169 620377494 547625725" />
    <route id="r4235e4220n" edges="619523290#0 619523290#1 619523288 619526570#0 619526570#1 620377514#1 619526569#1 619526568 619526567 619526566 122089528#1 620377517 gneE3 gneE44" />
    <route id="r4235n4220n" edges="-628341438#1 -628341438#0 -61645695 619526570#0 619526570#1 620377514#1 619526569#1 619526568 619526567 619526566 122089528#1 620377517 gneE3 gneE44" />
    <route id="r4235e4220s" edges="619523290#0 619523290#1 619523288 619526570#0 619526570#1 620377514#1 619526569#1 619526568 619526567 619526566 122089528#1 620377517 gneE74 gneE79 gneE41" />
    <route id="r4235n4220s" edges="-628341438#1 -628341438#0 -61645695 619526570#0 619526570#1 620377514#1 619526569#1 619526568 619526567 619526566 122089528#1 620377517 gneE74 gneE79 gneE41" />
    <route id="r4219s4220n" edges="620377506 gneE2 620377517 gneE3 gneE44" />
    <route id="r4219s4220s" edges="620377506 gneE2 620377517 gneE74 gneE79 gneE41" />
    <route id="r4219n4220n" edges="620377515  122089525 122089525.34 122089528#1 620377517 gneE3 gneE44" />
    <route id="r4219n4220s" edges="620377515  122089525 122089525.34 122089528#1 620377517 gneE74 gneE79 gneE41" />
    <route id="r4235e4221n" edges="619523290#0 619523290#1 619523288 619526570#0 619526570#1 620377514#1 619526569#1 619526568 619526567 619526566 122089528#1 620377517 gneE74 gneE72 gneE80 gneE81 gneE83 669665014 669665015#1 28594060#0 28594060#1 28594060#2 28594060#3 28594060#4" />
    <route id="r4235n4221n" edges="-628341438#1 -628341438#0 -61645695 619526570#0 619526570#1 620377514#1 619526569#1 619526568 619526567 619526566 122089528#1 620377517 gneE74 gneE72 gneE80 gneE81 gneE83 669665014 669665015#1 28594060#0 28594060#1 28594060#2 28594060#3 28594060#4" />
    <route id="r4235e4221s" edges="619523290#0 619523290#1 619523288 619526570#0 619526570#1 620377514#1 619526569#1 619526568 619526567 619526566 122089528#1 620377517 gneE74 gneE72 gneE80 gneE81 gneE82 207149704#0 207149704#1 112543664 620377510 620463733" />
    <route id="r4235n4221s" edges="-628341438#1 -628341438#0 -61645695 619526570#0 619526570#1 620377514#1 619526569#1 619526568 619526567 619526566 122089528#1 620377517 gneE74 gneE72 gneE80 gneE81 gneE82 207149704#0 207149704#1 112543664 620377510 620463733" />
    <route id="r4219s4221n" edges="620377506 gneE2 620377517 gneE74 gneE72 gneE80 gneE81 gneE83 669665014 669665015#1 28594060#0 28594060#1 28594060#2 28594060#3 28594060#4" />
    <route id="r4219s4221s" edges="620377506 gneE2 620377517 gneE74 gneE72 gneE80 gneE81 gneE82 207149704#0 207149704#1 112543664 620377510 620463733" />
    <route id="r4219n4221n" edges="620377515  122089525 122089525.34 122089528#1 620377517 gneE74 gneE72 gneE80 gneE81 gneE83 669665014 669665015#1 28594060#0 28594060#1 28594060#2 28594060#3 28594060#4" />
    <route id="r4219n4221s" edges="620377515  122089525 122089525.34 122089528#1 620377517 gneE74 gneE72 gneE80 gneE81 gneE82 207149704#0 207149704#1 112543664 620377510 620463733" />
    <route id="r4220s4221n" edges="gneE10.441 28641508 gneE80 gneE81 gneE83 669665014 669665015#1 28594060#0 28594060#1 28594060#2 28594060#3 28594060#4" />
    <route id="r4220s4221s" edges="gneE10.441 28641508 gneE80 gneE81 gneE82 207149704#0 207149704#1 112543664 620377510 620463733" />
    <route id="r4235e4221e" edges="619523290#0 619523290#1 619523288 619526570#0 619526570#1 620377514#1 619526569#1 619526568 619526567 619526566 122089528#1 620377517 gneE74 gneE72 gneE80 gneE81 gneE82 7637388#0 7637388#1 28573015#0 28573015#1 28573015#2 28573015#3 28573015#4 28573015#5 28573015#6" />
    <route id="r4235n4221e" edges="-628341438#1 -628341438#0 -61645695 619526570#0 619526570#1 620377514#1 619526569#1 619526568 619526567 619526566 122089528#1 620377517 gneE74 gneE72 gneE80 gneE81 gneE82 7637388#0 7637388#1 28573015#0 28573015#1 28573015#2 28573015#3 28573015#4 28573015#5 28573015#6" />
    <route id="r4219s4221e" edges="620377506 gneE2 620377517  gneE74 gneE72 gneE80 gneE81 gneE82 7637388#0 7637388#1 28573015#0 28573015#1 28573015#2 28573015#3 28573015#4 28573015#5 28573015#6" />
    <route id="r4219n4221e" edges="620377515  122089525 122089525.34 122089528#1 620377517 gneE74 gneE72 gneE80 gneE81 gneE82 7637388#0 7637388#1 28573015#0 28573015#1 28573015#2 28573015#3 28573015#4 28573015#5 28573015#6" />
    <route id="r4220s4221e" edges="gneE10.441 28641508 gneE80 gneE81 gneE82 7637388#0 7637388#1 28573015#0 28573015#1 28573015#2 28573015#3 28573015#4 28573015#5 28573015#6" />
    <route id="r4221s4220n" edges="-28594060#4 -28594060#3 -28594060#2 -28594060#1 -28594060#0 669665013 669665011 7635630#0 7635630#1 624439627 547793365 158617319 gneE77 gneE76 gneE44" />
    <route id="r4221n4220n" edges="-620463733 -620377511 -112543664 28573008 28573013 547793365 158617319 gneE77 gneE76 gneE44" />
    <route id="r4221w4220n" edges="-28573015#6 -28573015#5 -28573015#4 -28573015#3 -28573015#2 -28573015#1 -28573015#0 28573025 28573025.46 28573025.65 624439627 547793365 158617319 gneE77 gneE76 gneE44" />
    <route id="r4221s4220s" edges="-28594060#4 -28594060#3 -28594060#2 -28594060#1 -28594060#0 669665013 669665011 7635630#0 7635630#1 624439627 547793365 158617319 620377513 gneE41" />
    <route id="r4221n4220s" edges="-620463733 -620377511 -112543664 28573008 28573013 547793365 158617319 620377513 gneE41" />
    <route id="r4221w4220s" edges="-28573015#6 -28573015#5 -28573015#4 -28573015#3 -28573015#2 -28573015#1 -28573015#0 28573025 28573025.46 28573025.65 624439627 547793365 158617319 620377513 gneE41" />
    <route id="r4220s4219n" edges="gneE10.441 gneE73 gneE75 619526565 547625727 620377496 620377502#0 620377502#1 620377501#0" />
    <route id="r4220n4219n" edges="gneE47 gneE47.434 gneE78 gneE75 619526565 547625727 620377496 620377502#0 620377502#1 620377501#0" />
    <route id="r4221s4219n" edges="-28594060#4 -28594060#3 -28594060#2 -28594060#1 -28594060#0 669665013 669665011 7635630#0 7635630#1 624439627 547793365 158617319 gneE77 gneE75 619526565 547625727 620377496 620377502#0 620377502#1 620377501#0" />
    <route id="r4221n4219n" edges="-620463733 -620377511 -112543664 28573008 28573013 547793365 158617319 gneE77 gneE75 619526565 547625727 620377496 620377502#0 620377502#1 620377501#0" />
    <route id="r4221w4219n" edges="-28573015#6 -28573015#5 -28573015#4 -28573015#3 -28573015#2 -28573015#1 -28573015#0 28573025 28573025.46 28573025.65 624439627 547793365 158617319 gneE77 gneE75 619526565 547625727 620377496 620377502#0 620377502#1 620377501#0" />
    <route id="r4220s4219s" edges="gneE10.441 gneE73 gneE75 619526565 28592678 620377494 547625725" />
    <route id="r4220n4219s" edges="gneE47 gneE47.434 gneE78 gneE75 619526565 28592678 620377494 547625725" />
    <route id="r4221s4219s" edges="-28594060#4 -28594060#3 -28594060#2 -28594060#1 -28594060#0 669665013 669665011 7635630#0 7635630#1 624439627 547793365 158617319 gneE77 gneE75 619526565 28592678 620377494 547625725" />
    <route id="r4221n4219s" edges="-620463733 -620377511 -112543664 28573008 28573013 547793365 158617319 gneE77 gneE75 619526565 28592678 620377494 547625725" />
    <route id="r4221w4219s" edges="-28573015#6 -28573015#5 -28573015#4 -28573015#3 -28573015#2 -28573015#1 -28573015#0 28573025 28573025.46 28573025.65 624439627 547793365 158617319 gneE77 gneE75 619526565 28592678 620377494 547625725" />
    <route id="r4219s4235s" edges="620377506 620377506.61 122089526 122089583#0 122089583#1 122089583#1-AddedOffRampEdge 620377490 628341438#0 628341438#1" />
    <route id="r4219n4235s" edges="620377515 28592666 122089583#0 122089583#1 122089583#1-AddedOffRampEdge 620377490 628341438#0 628341438#1" />
    <route id="r4221s4235s" edges="-28594060#4 -28594060#3 -28594060#2 -28594060#1 -28594060#0 669665013 669665011 7635630#0 7635630#1 624439627 547793365 158617319 gneE77 gneE75 619526565 547625727 122089526 122089583#0 122089583#1 122089583#1-AddedOffRampEdge 620377490 628341438#0 628341438#1" />
    <route id="r4221n4235s" edges="-620463733 -620377511 -112543664 28573008 28573013 547793365 158617319 gneE77 gneE75 619526565 547625727 122089526 122089583#0 122089583#1 122089583#1-AddedOffRampEdge 620377490 628341438#0 628341438#1" />
    <route id="r4221w4235s" edges="-28573015#6 -28573015#5 -28573015#4 -28573015#3 -28573015#2 -28573015#1 -28573015#0 28573025 28573025.46 28573025.65 624439627 547793365 158617319 gneE77 gneE75 619526565 547625727 122089526 122089583#0 122089583#1 122089583#1-AddedOffRampEdge 620377490 628341438#0 628341438#1" />
    <route id="r4220s4235s" edges="gneE10.441 gneE73 gneE75 619526565 547625727 122089526 122089583#0 122089583#1 122089583#1-AddedOffRampEdge 620377490 628341438#0 628341438#1" />
    <route id="r4220n4235s" edges="gneE47 gneE47.434 gneE78 gneE75 619526565 547625727 122089526 122089583#0 122089583#1 122089583#1-AddedOffRampEdge 620377490 628341438#0 628341438#1" />
    <route id="r4219s4235w" edges="620377506 620377506.61 122089526 122089583#0 122089583#1 122089583#1-AddedOffRampEdge 619523286 619523287#0 619523287#0.17 619523287#1" />
    <route id="r4219n4235w" edges="620377515 28592666 122089583#0 122089583#1 122089583#1-AddedOffRampEdge 619523286 619523287#0 619523287#0.17 619523287#1" />
    <route id="r4221s4235w" edges="-28594060#4 -28594060#3 -28594060#2 -28594060#1 -28594060#0 669665013 669665011 7635630#0 7635630#1 624439627 547793365 158617319 gneE77 gneE75 619526565 547625727 122089526 122089583#0 122089583#1 122089583#1-AddedOffRampEdge 619523286 619523287#0 619523287#0.17 619523287#1" />
    <route id="r4221n4235w" edges="-620463733 -620377511 -112543664 28573008 28573013 547793365 158617319 gneE77 gneE75 619526565 547625727 122089526 122089583#0 122089583#1 122089583#1-AddedOffRampEdge 619523286 619523287#0 619523287#0.17 619523287#1" />
    <route id="r4221w4235w" edges="-28573015#6 -28573015#5 -28573015#4 -28573015#3 -28573015#2 -28573015#1 -28573015#0 28573025 28573025.46 28573025.65 624439627 547793365 158617319 gneE77 gneE75 619526565 547625727 122089526 122089583#0 122089583#1 122089583#1-AddedOffRampEdge 619523286 619523287#0 619523287#0.17 619523287#1" />
    <route id="r4220s4235w" edges="gneE10.441 gneE73 gneE75 619526565 547625727 122089526 122089583#0 122089583#1 122089583#1-AddedOffRampEdge 619523286 619523287#0 619523287#0.17 619523287#1" />
    <route id="r4220n4235w" edges="gneE47 gneE47.434 gneE78 gneE75 619526565 547625727 122089526 122089583#0 122089583#1 122089583#1-AddedOffRampEdge 619523286 619523287#0 619523287#0.17 619523287#1" />
    <vehicle id="south4221_0" type="type1" route="rsouth4221" depart="0" />
    <vehicle id="4235e4219n_1" type="type1" route="r4235e4219n" depart="0" />
    <vehicle id="4220s4221s_2" type="type1" route="r4220s4221s" depart="1" />
    <vehicle id="4235e4221e_3" type="type1" route="r4235e4221e" depart="1" />
    <vehicle id="4219s4221e_4" type="type1" route="r4219s4221e" depart="1" />
    <vehicle id="4220s4219n_5" type="type1" route="r4220s4219n" depart="1" />
    <vehicle id="north4221_6" type="type1" route="rnorth4221" depart="2" />
    <vehicle id="4235e4221n_7" type="type1" route="r4235e4221n" depart="2" />
    <vehicle id="4220s4219n_8" type="type1" route="r4220s4219n" depart="3" />
    <vehicle id="north4221_9" type="type1" route="rnorth4221" depart="4" />
    <vehicle id="4235e4221e_10" type="type1" route="r4235e4221e" depart="4" />
    <vehicle id="north4219_11" type="type1" route="rnorth4219" depart="5" />
    <vehicle id="south4220_12" type="type1" route="rsouth4220" depart="5" />
    <vehicle id="4235e4219s_13" type="type1" route="r4235e4219s" depart="5" />
    <vehicle id="4219n4221e_14" type="type1" route="r4219n4221e" depart="5" />
    <vehicle id="south4219_15" type="type1" route="rsouth4219" depart="6" />
    <vehicle id="north4221_16" type="type1" route="rnorth4221" depart="6" />
    <vehicle id="4235e4219n_17" type="type1" route="r4235e4219n" depart="6" />
    <vehicle id="4220n4235w_18" type="type1" route="r4220n4235w" depart="6" />
    <vehicle id="south4219_19" type="type1" route="rsouth4219" depart="7" />
    <vehicle id="4235e4219n_20" type="type1" route="r4235e4219n" depart="7" />
    <vehicle id="north4221_21" type="type1" route="rnorth4221" depart="8" />
    <vehicle id="north4221_22" type="type1" route="rnorth4221" depart="9" />
    <vehicle id="4235e4219n_23" type="type1" route="r4235e4219n" depart="9" />
    <vehicle id="north4221_24" type="type1" route="rnorth4221" depart="10" />
    <vehicle id="se4235_25" type="type1" route="rse4235" depart="11" />
    <vehicle id="north4221_26" type="type1" route="rnorth4221" depart="11" />
    <vehicle id="4220s4219n_27" type="type1" route="r4220s4219n" depart="11" />
    <vehicle id="se4235_28" type="type1" route="rse4235" depart="13" />
    <vehicle id="north4221_29" type="type1" route="rnorth4221" depart="13" />
    <vehicle id="4235e4219n_30" type="type1" route="r4235e4219n" depart="13" />
    <vehicle id="north4219_31" type="type1" route="rnorth4219" depart="14" />
    <vehicle id="4235e4219n_32" type="type1" route="r4235e4219n" depart="14" />
    <vehicle id="4235e4219s_33" type="type1" route="r4235e4219s" depart="14" />
    <vehicle id="4235e4220n_34" type="type1" route="r4235e4220n" depart="14" />
    <vehicle id="4235e4221e_35" type="type1" route="r4235e4221e" depart="14" />
    <vehicle id="north4221_36" type="type1" route="rnorth4221" depart="15" />
    <vehicle id="4219s4235w_37" type="type1" route="r4219s4235w" depart="15" />
    <vehicle id="south4219_38" type="type1" route="rsouth4219" depart="16" />
    <vehicle id="4235e4219n_39" type="type1" route="r4235e4219n" depart="16" />
    <vehicle id="4235e4219s_40" type="type1" route="r4235e4219s" depart="16" />
    <vehicle id="4221n4235w_41" type="type1" route="r4221n4235w" depart="16" />
    <vehicle id="north4219_42" type="type1" route="rnorth4219" depart="17" />
    <vehicle id="south4219_43" type="type1" route="rsouth4219" depart="17" />
    <vehicle id="north4221_44" type="type1" route="rnorth4221" depart="17" />
    <vehicle id="south4220_45" type="type1" route="rsouth4220" depart="18" />
    <vehicle id="north4221_46" type="type1" route="rnorth4221" depart="18" />
    <vehicle id="north4219_47" type="type1" route="rnorth4219" depart="19" />
    <vehicle id="north4219_48" type="type1" route="rnorth4219" depart="20" />
    <vehicle id="north4221_49" type="type1" route="rnorth4221" depart="20" />
    <vehicle id="4235e4219n_50" type="type1" route="r4235e4219n" depart="20" />
    <vehicle id="4221n4220s_51" type="type1" route="r4221n4220s" depart="20" />
    <vehicle id="4220s4235w_52" type="type1" route="r4220s4235w" depart="21" />
    <vehicle id="4235e4219n_53" type="type1" route="r4235e4219n" depart="22" />
    <vehicle id="north4219_54" type="type1" route="rnorth4219" depart="23" />
    <vehicle id="4235e4219n_55" type="type1" route="r4235e4219n" depart="23" />
    <vehicle id="4221n4219n_56" type="type1" route="r4221n4219n" depart="23" />
    <vehicle id="north4219_57" type="type1" route="rnorth4219" depart="24" />
    <vehicle id="4235e4221e_58" type="type1" route="r4235e4221e" depart="24" />
    <vehicle id="north4221_59" type="type1" route="rnorth4221" depart="25" />
    <vehicle id="4235e4219n_60" type="type1" route="r4235e4219n" depart="25" />
    <vehicle id="4220s4221e_61" type="type1" route="r4220s4221e" depart="25" />
    <vehicle id="4219s4235w_62" type="type1" route="r4219s4235w" depart="25" />
    <vehicle id="north4219_63" type="type1" route="rnorth4219" depart="26" />
    <vehicle id="4235e4221e_64" type="type1" route="r4235e4221e" depart="26" />
    <vehicle id="north4219_65" type="type1" route="rnorth4219" depart="27" />
    <vehicle id="4235e4221n_66" type="type1" route="r4235e4221n" depart="27" />
    <vehicle id="4235e4219n_67" type="type1" route="r4235e4219n" depart="28" />
    <vehicle id="4220s4219n_68" type="type1" route="r4220s4219n" depart="28" />
    <vehicle id="north4219_69" type="type1" route="rnorth4219" depart="29" />
    <vehicle id="4220s4221n_70" type="type1" route="r4220s4221n" depart="29" />
    <vehicle id="4221s4219n_71" type="type1" route="r4221s4219n" depart="29" />
    <vehicle id="4235e4219n_72" type="type1" route="r4235e4219n" depart="30" />
    <vehicle id="4235e4221n_73" type="type1" route="r4235e4221n" depart="30" />
    <vehicle id="north4221_74" type="type1" route="rnorth4221" depart="31" />
    <vehicle id="4235e4219s_75" type="type1" route="r4235e4219s" depart="31" />
    <vehicle id="north4221_76" type="type1" route="rnorth4221" depart="32" />
    <vehicle id="4235e4221e_77" type="type1" route="r4235e4221e" depart="32" />
    <vehicle id="4221w4219n_78" type="type1" route="r4221w4219n" depart="32" />
    <vehicle id="south4219_79" type="type1" route="rsouth4219" depart="33" />
    <vehicle id="4221w4235w_80" type="type1" route="r4221w4235w" depart="33" />
    <vehicle id="nw4235_81" type="type1" route="rnw4235" depart="34" />
    <vehicle id="north4219_82" type="type1" route="rnorth4219" depart="34" />
    <vehicle id="nw4235_83" type="type1" route="rnw4235" depart="35" />
    <vehicle id="4235e4219s_84" type="type1" route="r4235e4219s" depart="36" />
    <vehicle id="south4219_85" type="type1" route="rsouth4219" depart="37" />
    <vehicle id="4235e4221e_86" type="type1" route="r4235e4221e" depart="38" />
    <vehicle id="north4221_87" type="type1" route="rnorth4221" depart="39" />
    <vehicle id="4221n4219n_88" type="type1" route="r4221n4219n" depart="39" />
    <vehicle id="north4219_89" type="type1" route="rnorth4219" depart="40" />
    <vehicle id="4235e4221n_90" type="type1" route="r4235e4221n" depart="40" />
    <vehicle id="north4221_91" type="type1" route="rnorth4221" depart="41" />
    <vehicle id="4221n4220s_92" type="type1" route="r4221n4220s" depart="41" />
    <vehicle id="south4221_93" type="type1" route="rsouth4221" depart="42" />
    <vehicle id="4235e4219s_94" type="type1" route="r4235e4219s" depart="42" />
    <vehicle id="4220s4221e_95" type="type1" route="r4220s4221e" depart="42" />
    <vehicle id="4235e4219n_96" type="type1" route="r4235e4219n" depart="43" />
    <vehicle id="4219s4221e_97" type="type1" route="r4219s4221e" depart="43" />
    <vehicle id="south4219_98" type="type1" route="rsouth4219" depart="44" />
    <vehicle id="south4220_99" type="type1" route="rsouth4220" depart="44" />
    <vehicle id="4219s4221e_100" type="type1" route="r4219s4221e" depart="44" />
    <vehicle id="north4219_101" type="type1" route="rnorth4219" depart="45" />
    <vehicle id="4235e4221n_102" type="type1" route="r4235e4221n" depart="45" />
    <vehicle id="4219s4235w_103" type="type1" route="r4219s4235w" depart="45" />
    <vehicle id="south4219_104" type="type1" route="rsouth4219" depart="46" />
    <vehicle id="south4221_105" type="type1" route="rsouth4221" depart="46" />
    <vehicle id="4235e4221e_106" type="type1" route="r4235e4221e" depart="46" />
    <vehicle id="south4219_107" type="type1" route="rsouth4219" depart="48" />
    <vehicle id="south4220_108" type="type1" route="rsouth4220" depart="48" />
    <vehicle id="4235e4219n_109" type="type1" route="r4235e4219n" depart="48" />
    <vehicle id="4219n4221n_110" type="type1" route="r4219n4221n" depart="48" />
    <vehicle id="4220s4235w_111" type="type1" route="r4220s4235w" depart="48" />
    <vehicle id="south4219_112" type="type1" route="rsouth4219" depart="49" />
    <vehicle id="north4219_113" type="type1" route="rnorth4219" depart="50" />
    <vehicle id="south4221_114" type="type1" route="rsouth4221" depart="50" />
    <vehicle id="4235e4219n_115" type="type1" route="r4235e4219n" depart="50" />
    <vehicle id="4235e4219n_116" type="type1" route="r4235e4219n" depart="51" />
    <vehicle id="se4235_117" type="type1" route="rse4235" depart="52" />
    <vehicle id="4235e4219n_118" type="type1" route="r4235e4219n" depart="52" />
    <vehicle id="4235e4219n_119" type="type1" route="r4235e4219n" depart="53" />
    <vehicle id="4235e4219s_120" type="type1" route="r4235e4219s" depart="53" />
    <vehicle id="4235e4221e_121" type="type1" route="r4235e4221e" depart="53" />
    <vehicle id="4219n4235w_122" type="type1" route="r4219n4235w" depart="53" />
    <vehicle id="south4221_123" type="type1" route="rsouth4221" depart="54" />
    <vehicle id="4235e4219n_124" type="type1" route="r4235e4219n" depart="54" />
    <vehicle id="se4235_125" type="type1" route="rse4235" depart="55" />
    <vehicle id="se4221_126" type="type1" route="rse4221" depart="55" />
    <vehicle id="4235e4221s_127" type="type1" route="r4235e4221s" depart="55" />
    <vehicle id="4220s4219n_128" type="type1" route="r4220s4219n" depart="55" />
    <vehicle id="south4220_129" type="type1" route="rsouth4220" depart="57" />
    <vehicle id="4220s4221s_130" type="type1" route="r4220s4221s" depart="57" />
    <vehicle id="4220s4219n_131" type="type1" route="r4220s4219n" depart="58" />
    <vehicle id="north4219_132" type="type1" route="rnorth4219" depart="59" />
    <vehicle id="4235n4219n_133" type="type1" route="r4235n4219n" depart="59" />
    <vehicle id="north4221_134" type="type1" route="rnorth4221" depart="60" />
    <vehicle id="4221s4219n_135" type="type1" route="r4221s4219n" depart="60" />
    <vehicle id="4221n4235w_136" type="type1" route="r4221n4235w" depart="60" />
    <vehicle id="4235e4219n_137" type="type1" route="r4235e4219n" depart="61" />
    <vehicle id="nw4235_138" type="type1" route="rnw4235" depart="62" />
    <vehicle id="4235e4219s_139" type="type1" route="r4235e4219s" depart="62" />
    <vehicle id="north4219_140" type="type1" route="rnorth4219" depart="63" />
    <vehicle id="south4219_141" type="type1" route="rsouth4219" depart="63" />
    <vehicle id="north4221_142" type="type1" route="rnorth4221" depart="63" />
    <vehicle id="south4221_143" type="type1" route="rsouth4221" depart="63" />
    <vehicle id="4235n4219n_144" type="type1" route="r4235n4219n" depart="63" />
    <vehicle id="4235n4219s_145" type="type1" route="r4235n4219s" depart="63" />
    <vehicle id="4235e4220n_146" type="type1" route="r4235e4220n" depart="63" />
    <vehicle id="4235e4221n_147" type="type1" route="r4235e4221n" depart="63" />
    <vehicle id="se4235_148" type="type1" route="rse4235" depart="64" />
    <vehicle id="north4221_149" type="type1" route="rnorth4221" depart="64" />
    <vehicle id="south4221_150" type="type1" route="rsouth4221" depart="64" />
    <vehicle id="north4219_151" type="type1" route="rnorth4219" depart="66" />
    <vehicle id="south4221_152" type="type1" route="rsouth4221" depart="66" />
    <vehicle id="4235e4221e_153" type="type1" route="r4235e4221e" depart="66" />
    <vehicle id="4221s4235w_154" type="type1" route="r4221s4235w" depart="66" />
    <vehicle id="4235e4221n_155" type="type1" route="r4235e4221n" depart="67" />
    <vehicle id="north4219_156" type="type1" route="rnorth4219" depart="68" />
    <vehicle id="south4219_157" type="type1" route="rsouth4219" depart="68" />
    <vehicle id="north4221_158" type="type1" route="rnorth4221" depart="68" />
    <vehicle id="south4221_159" type="type1" route="rsouth4221" depart="68" />
    <vehicle id="4220s4221n_160" type="type1" route="r4220s4221n" depart="68" />
    <vehicle id="4235e4219s_161" type="type1" route="r4235e4219s" depart="69" />
    <vehicle id="4235e4219n_162" type="type1" route="r4235e4219n" depart="70" />
    <vehicle id="nw4235_163" type="type1" route="rnw4235" depart="71" />
    <vehicle id="north4221_164" type="type1" route="rnorth4221" depart="71" />
    <vehicle id="4220s4221e_165" type="type1" route="r4220s4221e" depart="71" />
    <vehicle id="4220s4219n_166" type="type1" route="r4220s4219n" depart="71" />
    <vehicle id="4221n4235w_167" type="type1" route="r4221n4235w" depart="71" />
    <vehicle id="se4235_168" type="type1" route="rse4235" depart="74" />
    <vehicle id="north4221_169" type="type1" route="rnorth4221" depart="74" />
    <vehicle id="4235e4219n_170" type="type1" route="r4235e4219n" depart="74" />
    <vehicle id="4235e4221e_171" type="type1" route="r4235e4221e" depart="74" />
    <vehicle id="4235e4221e_172" type="type1" route="r4235e4221e" depart="75" />
    <vehicle id="north4219_173" type="type1" route="rnorth4219" depart="76" />
    <vehicle id="se4235_174" type="type1" route="rse4235" depart="77" />
    <vehicle id="north4219_175" type="type1" route="rnorth4219" depart="77" />
    <vehicle id="4219s4221e_176" type="type1" route="r4219s4221e" depart="78" />
    <vehicle id="4235e4221e_177" type="type1" route="r4235e4221e" depart="79" />
    <vehicle id="4221s4235w_178" type="type1" route="r4221s4235w" depart="80" />
    <vehicle id="4235e4219n_179" type="type1" route="r4235e4219n" depart="81" />
    <vehicle id="4235e4221n_180" type="type1" route="r4235e4221n" depart="81" />
    <vehicle id="4220s4219n_181" type="type1" route="r4220s4219n" depart="81" />
    <vehicle id="north4219_182" type="type1" route="rnorth4219" depart="82" />
    <vehicle id="south4221_183" type="type1" route="rsouth4221" depart="82" />
    <vehicle id="4235e4219s_184" type="type1" route="r4235e4219s" depart="82" />
    <vehicle id="north4221_185" type="type1" route="rnorth4221" depart="83" />
    <vehicle id="4235e4219n_186" type="type1" route="r4235e4219n" depart="83" />
    <vehicle id="4235e4221n_187" type="type1" route="r4235e4221n" depart="83" />
    <vehicle id="south4219_188" type="type1" route="rsouth4219" depart="84" />
    <vehicle id="north4221_189" type="type1" route="rnorth4221" depart="84" />
    <vehicle id="4235e4219n_190" type="type1" route="r4235e4219n" depart="84" />
    <vehicle id="north4219_191" type="type1" route="rnorth4219" depart="85" />
    <vehicle id="4235e4219n_192" type="type1" route="r4235e4219n" depart="85" />
    <vehicle id="4235e4221e_193" type="type1" route="r4235e4221e" depart="85" />
    <vehicle id="north4219_194" type="type1" route="rnorth4219" depart="86" />
    <vehicle id="south4219_195" type="type1" route="rsouth4219" depart="86" />
    <vehicle id="south4220_196" type="type1" route="rsouth4220" depart="86" />
    <vehicle id="4219s4235w_197" type="type1" route="r4219s4235w" depart="86" />
    <vehicle id="4235e4221n_198" type="type1" route="r4235e4221n" depart="87" />
    <vehicle id="4220s4219n_199" type="type1" route="r4220s4219n" depart="87" />
    <vehicle id="se4235_200" type="type1" route="rse4235" depart="88" />
    <vehicle id="nw4235_201" type="type1" route="rnw4235" depart="88" />
    <vehicle id="north4219_202" type="type1" route="rnorth4219" depart="88" />
    <vehicle id="4235e4219n_203" type="type1" route="r4235e4219n" depart="88" />
    <vehicle id="4235e4219s_204" type="type1" route="r4235e4219s" depart="88" />
    <vehicle id="4219n4221n_205" type="type1" route="r4219n4221n" depart="88" />
    <vehicle id="north4219_206" type="type1" route="rnorth4219" depart="89" />
    <vehicle id="south4221_207" type="type1" route="rsouth4221" depart="89" />
    <vehicle id="ne4221_208" type="type1" route="rne4221" depart="89" />
    <vehicle id="4235e4221n_209" type="type1" route="r4235e4221n" depart="89" />
    <vehicle id="4235e4221e_210" type="type1" route="r4235e4221e" depart="89" />
    <vehicle id="south4219_211" type="type1" route="rsouth4219" depart="90" />
    <vehicle id="north4221_212" type="type1" route="rnorth4221" depart="90" />
    <vehicle id="south4221_213" type="type1" route="rsouth4221" depart="90" />
    <vehicle id="4235e4219n_214" type="type1" route="r4235e4219n" depart="90" />
    <vehicle id="se4235_215" type="type1" route="rse4235" depart="91" />