<?xml version="1.0" encoding="UTF-8"?>

<!-- generated on 04/07/20 18:51:23 by Eclipse SUMO netedit Version 1.5.0
<configuration xmlns:xsi="http://www.w3.org/2001/XMLSchema-instance" xsi:noNamespaceSchemaLocation="http://sumo.dlr.de/xsd/netconvertConfiguration.xsd">

    <input>
        <sumo-net-file value="C:\Users\Elliot\Downloads\sumo-win64extra-1.5.0\sumo-1.5.0\tools\_TiRakauDrive%20-%20Copy\osm.net.xml"/>
    </input>

    <output>
        <output-file value="C:\Users\Elliot\Downloads\sumo-win64extra-1.5.0\sumo-1.5.0\tools\_TiRakauDrive%20-%20Copy\osm.net.xml"/>
        <output.street-names value="true"/>
    </output>

    <processing>
        <geometry.min-radius.fix.railways value="false"/>
        <geometry.max-grade.fix value="false"/>
        <offset.disable-normalization value="true"/>
        <lefthand value="true"/>
    </processing>

    <junctions>
        <no-turnarounds value="true"/>
        <junctions.corner-detail value="5"/>
        <junctions.limit-turn-speed value="5.5"/>
        <rectangular-lane-cut value="false"/>
    </junctions>

    <pedestrian>
        <walkingareas value="false"/>
    </pedestrian>

    <report>
        <aggregate-warnings value="5"/>
    </report>

</configuration>
-->

<net version="1.3" junctionCornerDetail="5" lefthand="true" limitTurnSpeed="5.50" xmlns:xsi="http://www.w3.org/2001/XMLSchema-instance" xsi:noNamespaceSchemaLocation="http://sumo.dlr.de/xsd/net_file.xsd">

    <location netOffset="-313620.01,4089611.24" convBoundary="132.74,0.00,1100.75,877.01" origBoundary="174.907368,-36.934348,174.924467,-36.925011" projParameter="+proj=utm +zone=60 +ellps=WGS84 +datum=WGS84 +units=m +no_defs"/>

    <type id="highway.bridleway" priority="1" numLanes="1" speed="2.78" allow="pedestrian" oneway="1" width="2.00"/>
    <type id="highway.bus_guideway" priority="1" numLanes="1" speed="27.78" allow="bus" oneway="1"/>
    <type id="highway.cycleway" priority="1" numLanes="1" speed="8.33" allow="bicycle" oneway="0" width="1.00"/>
    <type id="highway.footway" priority="1" numLanes="1" speed="2.78" allow="pedestrian" oneway="1" width="2.00"/>
    <type id="highway.ford" priority="1" numLanes="1" speed="2.78" allow="army" oneway="0"/>
    <type id="highway.living_street" priority="2" numLanes="1" speed="2.78" disallow="tram rail_urban rail rail_electric rail_fast ship" oneway="0"/>
    <type id="highway.motorway" priority="14" numLanes="2" speed="39.44" allow="private emergency authority army vip passenger hov taxi bus coach delivery truck trailer motorcycle evehicle custom1 custom2" oneway="1"/>
    <type id="highway.motorway_link" priority="9" numLanes="1" speed="22.22" allow="private emergency authority army vip passenger hov taxi bus coach delivery truck trailer motorcycle evehicle custom1 custom2" oneway="1"/>
    <type id="highway.path" priority="1" numLanes="1" speed="2.78" allow="pedestrian bicycle" oneway="1" width="2.00"/>
    <type id="highway.pedestrian" priority="1" numLanes="1" speed="2.78" allow="pedestrian" oneway="1" width="2.00"/>
    <type id="highway.primary" priority="12" numLanes="2" speed="27.78" disallow="tram rail_urban rail rail_electric rail_fast ship" oneway="0"/>
    <type id="highway.primary_link" priority="7" numLanes="1" speed="22.22" disallow="tram rail_urban rail rail_electric rail_fast ship" oneway="0"/>
    <type id="highway.raceway" priority="15" numLanes="2" speed="83.33" allow="vip" oneway="0"/>
    <type id="highway.residential" priority="3" numLanes="1" speed="13.89" disallow="tram rail_urban rail rail_electric rail_fast ship" oneway="0"/>
    <type id="highway.secondary" priority="11" numLanes="1" speed="27.78" disallow="tram rail_urban rail rail_electric rail_fast ship" oneway="0"/>
    <type id="highway.secondary_link" priority="6" numLanes="1" speed="22.22" disallow="tram rail_urban rail rail_electric rail_fast ship" oneway="0"/>
    <type id="highway.service" priority="1" numLanes="1" speed="5.56" allow="pedestrian delivery bicycle" oneway="0"/>
    <type id="highway.stairs" priority="1" numLanes="1" speed="1.39" allow="pedestrian" oneway="1" width="2.00"/>
    <type id="highway.step" priority="1" numLanes="1" speed="1.39" allow="pedestrian" oneway="1" width="2.00"/>
    <type id="highway.steps" priority="1" numLanes="1" speed="1.39" allow="pedestrian" oneway="1" width="2.00"/>
    <type id="highway.tertiary" priority="10" numLanes="1" speed="22.22" disallow="tram rail_urban rail rail_electric rail_fast ship" oneway="0"/>
    <type id="highway.tertiary_link" priority="5" numLanes="1" speed="22.22" disallow="tram rail_urban rail rail_electric rail_fast ship" oneway="0"/>
    <type id="highway.track" priority="1" numLanes="1" speed="5.56" disallow="tram rail_urban rail rail_electric rail_fast ship" oneway="0"/>
    <type id="highway.trunk" priority="13" numLanes="2" speed="27.78" disallow="pedestrian bicycle tram rail_urban rail rail_electric rail_fast ship" oneway="0"/>
    <type id="highway.trunk_link" priority="8" numLanes="1" speed="22.22" disallow="pedestrian bicycle tram rail_urban rail rail_electric rail_fast ship" oneway="0"/>
    <type id="highway.unclassified" priority="4" numLanes="1" speed="13.89" disallow="tram rail_urban rail rail_electric rail_fast ship" oneway="0"/>
    <type id="highway.unsurfaced" priority="1" numLanes="1" speed="8.33" disallow="tram rail_urban rail rail_electric rail_fast ship" oneway="0"/>
    <type id="railway.highspeed" priority="21" numLanes="1" speed="69.44" allow="rail_fast" oneway="1"/>
    <type id="railway.light_rail" priority="19" numLanes="1" speed="27.78" allow="rail_urban" oneway="1"/>
    <type id="railway.preserved" priority="16" numLanes="1" speed="27.78" allow="rail" oneway="1"/>
    <type id="railway.rail" priority="20" numLanes="1" speed="44.44" allow="rail" oneway="1"/>
    <type id="railway.subway" priority="18" numLanes="1" speed="27.78" allow="rail_urban" oneway="1"/>
    <type id="railway.tram" priority="17" numLanes="1" speed="13.89" allow="tram" oneway="1"/>

    <edge id=":117331015_0" function="internal">
        <lane id=":117331015_0_0" index="0" disallow="tram rail_urban rail rail_electric rail_fast ship" speed="15.28" length="36.85" shape="452.26,669.41 455.90,676.37 460.01,683.94 463.76,692.59 466.34,702.78"/>
        <lane id=":117331015_0_1" index="1" disallow="tram rail_urban rail rail_electric rail_fast ship" speed="15.28" length="36.85" shape="455.17,668.07 458.85,675.17 463.04,683.03 466.89,691.97 469.50,702.29"/>
    </edge>
    <edge id=":117331015_2" function="internal">
        <lane id=":117331015_2_0" index="0" disallow="tram rail_urban rail rail_electric rail_fast ship" speed="15.28" length="36.93" shape="459.28,666.84 461.18,674.47 464.09,682.71 467.15,691.89 469.50,702.29"/>
        <lane id=":117331015_2_1" index="1" disallow="tram rail_urban rail rail_electric rail_fast ship" speed="15.28" length="36.93" shape="462.44,666.37 464.35,673.99 467.25,682.23 470.31,691.40 472.67,701.80"/>
    </edge>
    <edge id=":122089583#1-AddedOffRampNode_0" function="internal">
        <lane id=":122089583#1-AddedOffRampNode_0_0" index="0" disallow="tram rail_urban rail rail_electric rail_fast ship" speed="16.67" length="8.20" shape="299.15,581.53 296.95,580.32 295.81,578.81 294.67,577.30 292.47,576.09"/>
        <lane id=":122089583#1-AddedOffRampNode_0_1" index="1" disallow="tram rail_urban rail rail_electric rail_fast ship" speed="16.67" length="8.20" shape="299.15,581.53 291.52,579.14"/>
        <lane id=":122089583#1-AddedOffRampNode_0_2" index="2" disallow="tram rail_urban rail rail_electric rail_fast ship" speed="16.67" length="8.20" shape="298.20,584.58 290.56,582.20"/>
        <lane id=":122089583#1-AddedOffRampNode_0_3" index="3" disallow="tram rail_urban rail rail_electric rail_fast ship" speed="16.67" length="8.20" shape="297.24,587.64 289.61,585.25"/>
    </edge>
    <edge id=":132348946_0" function="internal">
        <lane id=":132348946_0_0" index="0" disallow="tram rail_urban rail rail_electric rail_fast ship" speed="13.89" length="2.94" shape="857.40,488.44 854.54,489.09"/>
    </edge>
    <edge id=":132348946_1" function="internal">
        <lane id=":132348946_1_0" index="0" disallow="tram rail_urban rail rail_electric rail_fast ship" speed="13.89" length="3.27" shape="857.40,488.44 854.88,490.53"/>
    </edge>
    <edge id=":132348946_2" function="internal">
        <lane id=":132348946_2_0" index="0" disallow="tram rail_urban rail rail_electric rail_fast ship" speed="3.65" length="2.34" shape="857.40,488.44 856.40,489.47 856.17,490.34"/>
    </edge>
    <edge id=":132348946_6" function="internal">
        <lane id=":132348946_6_0" index="0" disallow="tram rail_urban rail rail_electric rail_fast ship" speed="3.65" length="2.34" shape="856.17,490.34 856.73,491.04 858.07,491.57"/>
    </edge>
    <edge id=":132348946_3" function="internal">
        <lane id=":132348946_3_0" index="0" disallow="tram rail_urban rail rail_electric rail_fast ship" speed="13.89" length="2.87" shape="855.34,492.42 856.13,492.12 856.68,491.92 857.24,491.76 858.07,491.57"/>
    </edge>
    <edge id=":132348946_4" function="internal">
        <lane id=":132348946_4_0" index="0" disallow="tram rail_urban rail rail_electric rail_fast ship" speed="3.79" length="1.11" shape="855.34,492.42 856.09,491.61"/>
    </edge>
    <edge id=":132348946_5" function="internal">
        <lane id=":132348946_5_0" index="0" disallow="tram rail_urban rail rail_electric rail_fast ship" speed="5.02" length="7.16" shape="855.34,492.42 858.82,490.99 859.90,490.20 858.59,490.04 857.86,490.14"/>
    </edge>
    <edge id=":132348946_7" function="internal">
        <lane id=":132348946_7_0" index="0" disallow="tram rail_urban rail rail_electric rail_fast ship" speed="3.79" length="3.89" shape="856.09,491.61 856.39,491.29 856.61,490.36 855.99,489.62 854.54,489.09"/>
    </edge>
    <edge id=":132348946_8" function="internal">
        <lane id=":132348946_8_0" index="0" disallow="tram rail_urban rail rail_electric rail_fast ship" speed="5.02" length="3.00" shape="857.86,490.14 854.88,490.53"/>
    </edge>
    <edge id=":137485478_0" function="internal">
        <lane id=":137485478_0_0" index="0" disallow="tram rail_urban rail rail_electric rail_fast ship" speed="16.67" length="9.48" shape="902.73,657.78 900.90,655.82 899.58,654.49 898.46,653.05 897.20,650.70"/>
        <lane id=":137485478_0_1" index="1" disallow="tram rail_urban rail rail_electric rail_fast ship" speed="16.67" length="9.48" shape="900.32,659.88 898.31,657.72 896.89,656.25 895.68,654.65 894.31,652.07"/>
    </edge>
    <edge id=":137485478_2" function="internal">
        <lane id=":137485478_2_0" index="0" disallow="tram rail_urban rail rail_electric rail_fast ship" speed="3.65" length="2.34" shape="900.32,659.88 898.93,659.50 898.06,659.72"/>
    </edge>
    <edge id=":137485478_6" function="internal">
        <lane id=":137485478_6_0" index="0" disallow="tram rail_urban rail rail_electric rail_fast ship" speed="3.65" length="2.34" shape="898.06,659.72 897.72,660.55 897.90,661.98"/>
    </edge>
    <edge id=":137485478_3" function="internal">
        <lane id=":137485478_3_0" index="0" disallow="tram rail_urban rail rail_electric rail_fast ship" speed="10.46" length="4.89" shape="892.13,661.81 893.26,662.27 894.02,662.65 894.67,663.18 895.49,664.08"/>
        <lane id=":137485478_3_1" index="1" disallow="tram rail_urban rail rail_electric rail_fast ship" speed="12.19" length="4.89" shape="893.31,658.84 894.87,659.47 895.89,660.01 896.78,660.75 897.90,661.98"/>
    </edge>
    <edge id=":137485478_5" function="internal">
        <lane id=":137485478_5_0" index="0" disallow="tram rail_urban rail rail_electric rail_fast ship" speed="5.44" length="3.80" shape="893.31,658.84 895.32,659.18 896.15,658.17 896.08,657.72"/>
    </edge>
    <edge id=":137485478_7" function="internal">
        <lane id=":137485478_7_0" index="0" disallow="tram rail_urban rail rail_electric rail_fast ship" speed="5.44" length="5.95" shape="896.08,657.72 895.81,655.80 894.31,652.07"/>
    </edge>
    <edge id=":1490190019_0" function="internal">
        <lane id=":1490190019_0_0" index="0" disallow="tram rail_urban rail rail_electric rail_fast ship" speed="16.67" length="7.86" shape="340.56,592.54 333.08,590.86"/>
        <lane id=":1490190019_0_1" index="1" disallow="tram rail_urban rail rail_electric rail_fast ship" speed="16.67" length="7.86" shape="339.96,595.68 332.29,593.96"/>
        <lane id=":1490190019_0_2" index="2" disallow="tram rail_urban rail rail_electric rail_fast ship" speed="16.67" length="7.86" shape="339.35,598.82 331.49,597.06"/>
    </edge>
    <edge id=":1490190029_0" function="internal">
        <lane id=":1490190029_0_0" index="0" disallow="tram rail_urban rail rail_electric rail_fast ship" speed="16.67" length="0.23" shape="809.59,591.66 809.84,591.91"/>
        <lane id=":1490190029_0_1" index="1" disallow="tram rail_urban rail rail_electric rail_fast ship" speed="16.67" length="0.23" shape="811.89,589.45 811.98,589.53"/>
    </edge>
    <edge id=":1707799577_0" function="internal">
        <lane id=":1707799577_0_0" index="0" disallow="tram rail_urban rail rail_electric rail_fast ship" speed="16.67" length="18.11" shape="738.49,444.30 738.61,450.16 737.76,454.72 736.76,458.54 736.42,462.19"/>
    </edge>
    <edge id=":1707799577_1" function="internal">
        <lane id=":1707799577_1_0" index="0" disallow="tram rail_urban rail rail_electric rail_fast ship" speed="16.67" length="15.04" shape="738.49,444.30 740.44,459.21"/>
        <lane id=":1707799577_1_1" index="1" disallow="tram rail_urban rail rail_electric rail_fast ship" speed="16.67" length="15.04" shape="741.66,443.88 743.61,458.79"/>
    </edge>
    <edge id=":1707799579_0" function="internal">
        <lane id=":1707799579_0_0" index="0" disallow="tram rail_urban rail rail_electric rail_fast ship" speed="16.67" length="8.83" shape="672.25,537.94 669.55,537.78 667.80,536.02 666.03,534.21 663.27,533.87"/>
        <lane id=":1707799579_0_1" index="1" disallow="tram rail_urban rail rail_electric rail_fast ship" speed="16.67" length="8.83" shape="672.25,537.94 669.88,538.18 668.18,537.55 666.47,536.87 664.06,536.97"/>
        <lane id=":1707799579_0_2" index="2" disallow="tram rail_urban rail rail_electric rail_fast ship" speed="16.67" length="8.83" shape="672.25,537.94 664.84,540.07"/>
        <lane id=":1707799579_0_3" index="3" disallow="tram rail_urban rail rail_electric rail_fast ship" speed="16.67" length="8.83" shape="672.25,537.94 670.10,539.16 668.97,540.66 667.82,542.10 665.62,543.17"/>
        <lane id=":1707799579_0_4" index="4" disallow="tram rail_urban rail rail_electric rail_fast ship" speed="16.67" length="8.83" shape="673.24,540.98 671.03,542.22 669.86,543.73 668.67,545.19 666.41,546.28"/>
    </edge>
    <edge id=":313863429_0" function="internal">
        <lane id=":313863429_0_0" index="0" disallow="tram rail_urban rail rail_electric rail_fast ship" speed="19.45" length="8.21" shape="809.66,564.77 803.63,559.21"/>
    </edge>
    <edge id=":313863429_1" function="internal">
        <lane id=":313863429_1_0" index="0" disallow="tram rail_urban rail rail_electric rail_fast ship" speed="16.67" length="8.29" shape="807.52,567.15 805.71,565.49 804.51,564.31 803.38,563.06 801.76,561.20"/>
    </edge>
    <edge id=":313863429_2" function="internal">
        <lane id=":313863429_2_0" index="0" disallow="tram rail_urban rail rail_electric rail_fast ship" speed="16.67" length="8.36" shape="805.39,569.53 803.55,567.86 802.34,566.67 801.20,565.42 799.56,563.55"/>
    </edge>
    <edge id=":313863429_3" function="internal">
        <lane id=":313863429_3_0" index="0" disallow="tram rail_urban rail rail_electric rail_fast ship" speed="16.67" length="8.43" shape="803.25,571.91 801.40,570.23 800.17,569.04 799.01,567.77 797.36,565.89"/>
    </edge>
    <edge id=":313863429_4" function="internal">
        <lane id=":313863429_4_0" index="0" disallow="tram rail_urban rail rail_electric rail_fast ship" speed="16.67" length="8.49" shape="801.11,574.29 799.24,572.60 798.00,571.40 796.83,570.13 795.16,568.24"/>
    </edge>
    <edge id=":313863434_0" function="internal">
        <lane id=":313863434_0_0" index="0" disallow="tram rail_urban rail rail_electric rail_fast ship" speed="7.24" length="7.78" shape="795.43,519.78 795.78,517.49 796.51,515.67 797.63,514.32 799.14,513.44"/>
    </edge>
    <edge id=":313863434_1" function="internal">
        <lane id=":313863434_1_0" index="0" disallow="tram rail_urban rail rail_electric rail_fast ship" speed="13.89" length="8.71" shape="790.99,516.51 799.14,513.44"/>
    </edge>
    <edge id=":313863524_0" function="internal">
        <lane id=":313863524_0_0" index="0" disallow="tram rail_urban rail rail_electric rail_fast ship" speed="7.50" length="7.57" shape="737.98,511.93 737.36,514.15 736.47,515.89 735.31,517.13 733.88,517.88"/>
    </edge>
    <edge id=":313863524_1" function="internal">
        <lane id=":313863524_1_0" index="0" disallow="tram rail_urban rail rail_electric rail_fast ship" speed="16.67" length="8.31" shape="741.82,515.37 733.88,517.88"/>
        <lane id=":313863524_1_1" index="1" disallow="tram rail_urban rail rail_electric rail_fast ship" speed="16.67" length="8.31" shape="742.78,518.42 734.87,520.93"/>
    </edge>
    <edge id=":313863666_0" function="internal">
        <lane id=":313863666_0_0" index="0" disallow="tram rail_urban rail rail_electric rail_fast ship" speed="13.89" length="0.30" shape="800.10,499.52 800.01,499.53 799.95,499.54 799.89,499.54 799.80,499.54"/>
    </edge>
    <edge id=":313863668_0" function="internal">
        <lane id=":313863668_0_0" index="0" disallow="tram rail_urban rail rail_electric rail_fast ship" speed="8.13" length="8.30" shape="766.42,495.33 764.03,494.08 762.26,492.75 761.11,491.34 760.58,489.87"/>
    </edge>
    <edge id=":313863668_1" function="internal">
        <lane id=":313863668_1_0" index="0" disallow="tram rail_urban rail rail_electric rail_fast ship" speed="16.67" length="9.13" shape="762.86,498.45 762.06,495.93 761.48,494.21 761.03,492.46 760.58,489.87"/>
        <lane id=":313863668_1_1" index="1" disallow="tram rail_urban rail rail_electric rail_fast ship" speed="16.67" length="9.13" shape="759.80,499.37 758.95,496.72 758.35,494.90 757.88,493.06 757.41,490.33"/>
    </edge>
    <edge id=":313863768_0" function="internal">
        <lane id=":313863768_0_0" index="0" disallow="tram rail_urban rail rail_electric rail_fast ship" speed="16.67" length="40.48" shape="695.21,558.16 708.72,553.87 720.02,550.38 728.65,548.06 734.13,547.30"/>
    </edge>
    <edge id=":313863768_1" function="internal">
        <lane id=":313863768_1_0" index="0" disallow="tram rail_urban rail rail_electric rail_fast ship" speed="16.67" length="31.94" shape="694.24,555.11 703.22,551.75 709.23,548.69 715.06,545.68 723.53,542.46"/>
        <lane id=":313863768_1_1" index="1" disallow="tram rail_urban rail rail_electric rail_fast ship" speed="16.67" length="31.94" shape="693.28,552.06 702.26,548.69 708.26,545.64 714.09,542.63 722.56,539.41"/>
        <lane id=":313863768_1_2" index="2" disallow="tram rail_urban rail rail_electric rail_fast ship" speed="16.67" length="31.94" shape="692.32,549.01 701.29,545.64 707.29,542.59 713.12,539.58 721.59,536.36"/>
    </edge>
    <edge id=":313863797_0" function="internal">
        <lane id=":313863797_0_0" index="0" disallow="tram rail_urban rail rail_electric rail_fast ship" speed="10.20" length="7.05" shape="766.61,549.41 768.69,549.78 770.17,550.05 771.45,550.68 772.89,552.09"/>
    </edge>
    <edge id=":313863797_1" function="internal">
        <lane id=":313863797_1_0" index="0" disallow="tram rail_urban rail rail_electric rail_fast ship" speed="16.67" length="7.02" shape="768.95,546.05 770.07,547.88 770.79,549.17 771.57,550.41 772.89,552.09"/>
        <lane id=":313863797_1_1" index="1" disallow="tram rail_urban rail rail_electric rail_fast ship" speed="16.67" length="7.02" shape="771.64,544.31 772.69,546.04 773.36,547.26 774.09,548.44 775.34,550.03"/>
    </edge>
    <edge id=":314054793_0" function="internal">
        <lane id=":314054793_0_0" index="0" disallow="tram rail_urban rail rail_electric rail_fast ship" speed="16.67" length="7.70" shape="352.94,617.17 355.28,617.68 356.82,618.36 358.37,618.97 360.73,619.26"/>
        <lane id=":314054793_0_1" index="1" disallow="tram rail_urban rail rail_electric rail_fast ship" speed="16.67" length="7.70" shape="353.30,613.99 355.54,614.49 357.02,615.17 358.51,615.78 360.77,616.06"/>
        <lane id=":314054793_0_2" index="2" disallow="tram rail_urban rail rail_electric rail_fast ship" speed="16.67" length="7.70" shape="353.65,610.81 355.81,611.30 357.22,611.97 358.64,612.58 360.81,612.86"/>
        <lane id=":314054793_0_3" index="3" disallow="tram rail_urban rail rail_electric rail_fast ship" speed="16.67" length="7.70" shape="353.65,610.81 355.79,610.80 357.24,610.37 358.70,609.88 360.85,609.66"/>
    </edge>
    <edge id=":314060705_0" function="internal">
        <lane id=":314060705_0_0" index="0" disallow="tram rail_urban rail rail_electric rail_fast ship" speed="22.22" length="8.06" shape="419.33,519.72 421.48,527.49"/>
    </edge>
    <edge id=":314060705_1" function="internal">
        <lane id=":314060705_1_0" index="0" disallow="tram rail_urban rail rail_electric rail_fast ship" speed="22.22" length="8.20" shape="422.41,518.84 424.44,526.70"/>
        <lane id=":314060705_1_1" index="1" disallow="tram rail_urban rail rail_electric rail_fast ship" speed="22.22" length="8.20" shape="425.48,517.96 427.53,525.87"/>
        <lane id=":314060705_1_2" index="2" disallow="tram rail_urban rail rail_electric rail_fast ship" speed="22.22" length="8.20" shape="428.56,517.08 430.62,525.05"/>
        <lane id=":314060705_1_3" index="3" disallow="tram rail_urban rail rail_electric rail_fast ship" speed="22.22" length="8.20" shape="431.64,516.20 433.71,524.22"/>
    </edge>
    <edge id=":314060709_0" function="internal">
        <lane id=":314060709_0_0" index="0" disallow="tram rail_urban rail rail_electric rail_fast ship" speed="19.45" length="8.19" shape="421.59,585.30 413.55,586.82"/>
    </edge>
    <edge id=":314060709_1" function="internal">
        <lane id=":314060709_1_0" index="0" disallow="tram rail_urban rail rail_electric rail_fast ship" speed="16.67" length="7.76" shape="422.03,588.68 414.17,589.96"/>
        <lane id=":314060709_1_1" index="1" disallow="tram rail_urban rail rail_electric rail_fast ship" speed="16.67" length="7.76" shape="422.44,591.86 414.78,593.10"/>
        <lane id=":314060709_1_2" index="2" disallow="tram rail_urban rail rail_electric rail_fast ship" speed="16.67" length="7.76" shape="422.85,595.03 415.40,596.24"/>
    </edge>
    <edge id=":314060710_0" function="internal">
        <lane id=":314060710_0_0" index="0" disallow="tram rail_urban rail rail_electric rail_fast ship" speed="19.45" length="8.91" shape="521.13,567.31 512.48,569.42"/>
    </edge>
    <edge id=":314060710_1" function="internal">
        <lane id=":314060710_1_0" index="0" disallow="tram rail_urban rail rail_electric rail_fast ship" speed="16.67" length="8.76" shape="521.82,570.44 519.18,570.76 517.32,570.59 515.47,570.40 512.82,570.68"/>
        <lane id=":314060710_1_1" index="1" disallow="tram rail_urban rail rail_electric rail_fast ship" speed="16.67" length="8.76" shape="522.50,573.56 519.91,573.87 518.08,573.70 516.26,573.51 513.65,573.78"/>
        <lane id=":314060710_1_2" index="2" disallow="tram rail_urban rail rail_electric rail_fast ship" speed="16.67" length="8.76" shape="523.19,576.69 520.63,576.99 518.84,576.81 517.04,576.62 514.48,576.87"/>
        <lane id=":314060710_1_3" index="3" disallow="tram rail_urban rail rail_electric rail_fast ship" speed="16.67" length="8.76" shape="523.87,579.81 521.36,580.11 519.60,579.92 517.83,579.72 515.31,579.97"/>
        <lane id=":314060710_1_4" index="4" disallow="tram rail_urban rail rail_electric rail_fast ship" speed="16.67" length="8.76" shape="524.56,582.94 522.09,583.22 520.36,583.03 518.62,582.83 516.14,583.07"/>
    </edge>
    <edge id=":314060727_0" function="internal">
        <lane id=":314060727_0_0" index="0" disallow="tram rail_urban rail rail_electric rail_fast ship" speed="22.22" length="8.40" shape="457.73,559.55 456.54,557.37 455.82,555.81 455.29,554.19 454.68,551.77"/>
    </edge>
    <edge id=":314060727_1" function="internal">
        <lane id=":314060727_1_0" index="0" disallow="tram rail_urban rail rail_electric rail_fast ship" speed="22.22" length="8.71" shape="453.89,560.82 451.57,552.53"/>
        <lane id=":314060727_1_1" index="1" disallow="tram rail_urban rail rail_electric rail_fast ship" speed="22.22" length="8.71" shape="450.84,561.78 448.47,553.29"/>
    </edge>
    <edge id=":314796108_0" function="internal">
        <lane id=":314796108_0_0" index="0" disallow="tram rail_urban rail rail_electric rail_fast ship" speed="18.06" length="29.29" shape="503.61,611.57 509.24,609.56 517.49,606.94 525.79,604.46 531.57,602.89"/>
    </edge>
    <edge id=":314796108_1" function="internal">
        <lane id=":314796108_1_0" index="0" disallow="tram rail_urban rail rail_electric rail_fast ship" speed="15.28" length="31.13" shape="503.61,611.57 507.72,609.24 513.37,605.73 520.87,601.90 530.55,598.61"/>
        <lane id=":314796108_1_1" index="1" disallow="tram rail_urban rail rail_electric rail_fast ship" speed="15.28" length="31.13" shape="503.61,611.57 507.55,608.77 512.85,604.21 520.07,599.31 529.81,595.49"/>
        <lane id=":314796108_1_2" index="2" disallow="tram rail_urban rail rail_electric rail_fast ship" speed="15.28" length="31.13" shape="503.61,611.57 507.36,608.30 512.27,602.71 519.22,596.75 529.07,592.38"/>
    </edge>
    <edge id=":314796108_4" function="internal">
        <lane id=":314796108_4_0" index="0" disallow="tram rail_urban rail rail_electric rail_fast ship" speed="19.45" length="29.54" shape="502.44,607.78 531.57,602.89"/>
    </edge>
    <edge id=":314796108_5" function="internal">
        <lane id=":314796108_5_0" index="0" disallow="tram rail_urban rail rail_electric rail_fast ship" speed="16.67" length="29.22" shape="501.80,604.64 530.55,598.61"/>
        <lane id=":314796108_5_1" index="1" disallow="tram rail_urban rail rail_electric rail_fast ship" speed="16.67" length="29.22" shape="501.16,601.50 529.81,595.49"/>
        <lane id=":314796108_5_2" index="2" disallow="tram rail_urban rail rail_electric rail_fast ship" speed="16.67" length="29.22" shape="500.52,598.37 529.07,592.38"/>
        <lane id=":314796108_5_3" index="3" disallow="tram rail_urban rail rail_electric rail_fast ship" speed="16.67" length="29.22" shape="499.88,595.23 528.33,589.27"/>
    </edge>
    <edge id=":314796109_0" function="internal">
        <lane id=":314796109_0_0" index="0" allow="pedestrian delivery bicycle" speed="8.24" length="13.02" shape="607.86,596.61 616.68,587.03"/>
    </edge>
    <edge id=":314796109_1" function="internal">
        <lane id=":314796109_1_0" index="0" allow="pedestrian delivery bicycle" speed="5.56" length="17.89" shape="607.86,596.61 611.58,598.72 613.59,597.74 613.88,593.68 612.44,586.52"/>
    </edge>
    <edge id=":314796109_2" function="internal">
        <lane id=":314796109_2_0" index="0" allow="pedestrian delivery bicycle" speed="5.56" length="13.38" shape="607.86,596.61 609.81,597.48 610.68,596.10 610.46,592.49 609.16,586.63"/>
    </edge>
    <edge id=":314796110_0" function="internal">
        <lane id=":314796110_0_0" index="0" disallow="tram rail_urban rail rail_electric rail_fast ship" speed="17.98" length="8.59" shape="620.74,583.51 622.68,581.86 624.12,580.87 625.72,580.15 628.14,579.36"/>
    </edge>
    <edge id=":314796110_1" function="internal">
        <lane id=":314796110_1_0" index="0" disallow="tram rail_urban rail rail_electric rail_fast ship" speed="16.67" length="5.35" shape="621.41,576.35 623.11,576.22 624.32,576.44 625.51,576.60 627.17,576.31"/>
        <lane id=":314796110_1_1" index="1" disallow="tram rail_urban rail rail_electric rail_fast ship" speed="16.67" length="5.35" shape="620.77,573.21 622.38,573.11 623.51,573.34 624.64,573.52 626.21,573.26"/>
        <lane id=":314796110_1_2" index="2" disallow="tram rail_urban rail rail_electric rail_fast ship" speed="16.67" length="5.35" shape="620.13,570.08 621.64,569.99 622.71,570.24 623.77,570.44 625.24,570.20"/>
        <lane id=":314796110_1_3" index="3" disallow="tram rail_urban rail rail_electric rail_fast ship" speed="16.67" length="5.35" shape="619.49,566.94 620.90,566.87 621.91,567.14 622.90,567.36 624.28,567.15"/>
    </edge>
    <edge id=":3666559590_0" function="internal">
        <lane id=":3666559590_0_0" index="0" disallow="tram rail_urban rail rail_electric rail_fast ship" speed="3.65" length="4.67" shape="918.29,685.47 919.68,685.85 920.55,685.63 920.89,684.80 920.71,683.37"/>
    </edge>
    <edge id=":3666559621_0" function="internal">
        <lane id=":3666559621_0_0" index="0" disallow="tram rail_urban rail rail_electric rail_fast ship" speed="16.67" length="0.66" shape="313.20,610.48 313.51,610.59 313.72,610.66 313.94,610.72 314.26,610.79"/>
        <lane id=":3666559621_0_1" index="1" disallow="tram rail_urban rail rail_electric rail_fast ship" speed="16.67" length="0.66" shape="314.31,607.48 314.49,607.54 314.62,607.58 314.75,607.62 314.94,607.66"/>
        <lane id=":3666559621_0_2" index="2" disallow="tram rail_urban rail rail_electric rail_fast ship" speed="16.67" length="0.66" shape="315.42,604.47 315.48,604.50 315.52,604.51 315.56,604.52 315.63,604.53"/>
    </edge>
    <edge id=":3666559688_0" function="internal">
        <lane id=":3666559688_0_0" index="0" disallow="tram rail_urban rail rail_electric rail_fast ship" speed="13.89" length="0.47" shape="769.72,496.74 769.59,496.72 769.49,496.70 769.40,496.67 769.27,496.61"/>
    </edge>