<?xml version="1.0" encoding="UTF-8"?>

<!-- generated on 04/02/20 17:38:53 by Eclipse SUMO polyconvert Version 1.5.0
<configuration xmlns:xsi="http://www.w3.org/2001/XMLSchema-instance" xsi:noNamespaceSchemaLocation="http://sumo.dlr.de/xsd/polyconvertConfiguration.xsd">

    <input>
        <net-file value="osm.net.xml"/>
        <osm-files value="osm_bbox.osm.xml"/>
        <osm.keep-full-type value="true"/>
        <type-file value="C:\Program%20Files%20(x86)\Eclipse\Sumo\data\typemap\osmPolyconvert.typ.xml"/>
    </input>

    <output>
        <output-file value="osm.poly.xml"/>
    </output>

    <processing>
        <poi-layer-offset value="5"/>
    </processing>

    <report>
        <verbose value="true"/>
    </report>

</configuration>
-->

<additional xmlns:xsi="http://www.w3.org/2001/XMLSchema-instance" xsi:noNamespaceSchemaLocation="http://sumo.dlr.de/xsd/additional_file.xsd">
    <location netOffset="-313620.01,4089611.24" convBoundary="-11.99,-176.05,1604.81,1303.10" origBoundary="174.907202,-36.935924,174.925351,-36.922615" projParameter="+proj=utm +zone=60 +ellps=WGS84 +datum=WGS84 +units=m +no_defs"/>

    <poly id="101929679" type="landuse.residential" color="235,235,227" fill="1" layer="-3.00" shape="1353.334679,776.298025 1362.646171,786.180588 1419.218826,789.877550 1426.176352,783.046906 1430.497539,721.733078 1431.143354,661.815546 1431.272359,620.713200 1436.425252,612.444577 1445.175765,607.573371 1458.586899,610.485223 1461.563640,625.613440 1455.678828,631.890245 1448.825295,637.635322 1446.221809,663.875694 1444.627777,687.140919 1443.961916,729.164005 1440.364530,784.665838 1446.462443,787.840203 1461.604025,786.194119 1480.849480,780.663407 1499.852691,772.341155 1514.729252,763.218576 1531.632114,748.212429 1550.622886,723.671982 1563.206913,694.174420 1569.625486,673.201013 1570.586198,661.000287 1572.551490,625.577003 1576.768087,602.180154 1603.189084,547.419314 1604.811396,523.244456 1600.828793,502.322152 1549.216901,510.722828 1531.392901,507.481915 1524.890535,503.654964 1514.541851,496.802617 1507.887082,487.288878 1499.349178,457.853127 1492.095035,445.173776 1495.630021,436.714481 1505.507865,432.855721 1513.440597,431.152491 1520.819669,438.095586 1521.332929,447.264673 1519.723163,455.710399 1519.417060,466.493417 1525.533056,485.197728 1532.399939,491.519128 1542.880735,495.987723 1550.302953,496.859755 1592.349105,489.438615 1596.786804,484.129271 1572.039528,353.126458 1562.946905,285.315375 1556.073081,267.860037 1544.974855,250.834433 1527.256737,230.889528 1497.098135,199.095805 1461.968110,148.855621 1454.952543,148.147759 1434.569285,164.654147 1422.061235,171.041917 1418.940021,180.142929 1413.101740,180.615140 1411.941651,172.919407 1407.341922,168.489975 1409.319396,164.847696 1415.204999,167.928684 1447.105681,142.648560 1447.074197,136.731303 1440.396421,130.336225 1413.716492,114.780299 1393.820408,106.887176 1370.529101,101.450921 1357.530821,99.669029 1341.041320,99.431687 1337.612443,100.977613 1341.514867,167.232872 1345.078282,182.817972 1352.044989,198.033233 1380.351895,239.122679 1387.010614,243.941111 1392.802882,246.809168 1400.919234,249.350448 1411.028603,249.581840 1422.573532,246.503247 1437.042205,237.660572 1446.718237,240.602106 1450.890823,246.642881 1451.810506,253.922648 1446.871941,260.952684 1438.729017,264.538351 1428.644364,262.353842 1418.331605,261.640717 1397.838012,262.748223 1383.627301,261.794705 1374.390691,253.001606 1338.930907,201.965564 1331.376177,181.431425 1328.600193,138.311997 1321.926373,101.901102 1318.655899,101.086065 1300.755940,105.457911 1285.314795,111.903633 1266.394775,120.959788 1244.593709,137.901042 1243.056047,140.986752 1258.598202,174.860408 1270.968766,224.638514 1281.789152,247.841443 1287.954346,256.900694 1291.920209,261.382973 1299.731863,267.680783 1313.545767,278.660657 1315.020117,287.062590 1310.969432,294.644736 1303.760018,297.917616 1296.329763,297.422598 1291.961143,295.062840 1281.150228,270.195059 1268.845190,249.279765 1260.866963,230.190490 1252.405095,196.504569 1244.859129,172.718077 1231.110570,150.583470 1225.004449,150.261571 1175.710555,175.838560 1172.643590,182.032341 1206.190664,284.345151 1214.092083,292.654195 1227.907748,298.239396 1241.725340,316.812227 1239.155087,328.833538 1243.857385,346.130802 1264.798905,378.845605 1268.648808,380.883249 1284.875709,372.345564 1310.279399,364.718354 1346.427172,356.825745 1359.842999,351.734412 1394.495171,333.951754 1413.814957,326.602385 1431.494536,325.000603 1449.663473,326.706296 1462.824755,329.612726 1488.499983,338.552865 1492.532243,345.312091 1492.159774,354.639501 1487.019327,360.299801 1476.844820,363.053124 1469.855214,357.872347 1461.143935,349.090798 1453.060380,344.629910 1441.724167,340.986192 1429.393477,340.040416 1417.376176,342.298396 1404.250029,347.185219 1363.341782,367.429089 1362.161025,369.268241 1364.235741,378.748894 1368.415326,389.785090 1375.126413,402.019807 1389.405901,419.048360 1396.873303,427.658570 1402.888313,431.352902 1410.941695,434.747527 1415.522633,438.410603 1417.648736,442.264400 1418.183215,447.182469 1412.416341,454.594062 1405.594323,456.443508 1399.377097,455.075880 1395.469769,451.172163 1392.403224,443.445990 1384.831400,428.994633 1365.130161,405.176504 1358.310504,393.017116 1349.409595,372.087355 1303.484802,383.296791 1282.664066,392.444780 1278.127280,395.342997 1277.121918,400.172002 1313.789347,472.281158 1340.748186,550.317086 1343.059572,552.620869 1347.300373,553.901055 1363.342515,551.397858 1400.907000,536.187315 1410.917463,529.112400 1420.098831,521.641992 1427.034130,521.548880 1434.294642,524.526585 1438.066747,530.958249 1436.599551,537.764196 1433.711655,542.696508 1426.220475,545.397236 1416.588688,544.499157 1411.771651,544.716119 1404.918525,546.353982 1372.774953,562.670626 1351.986442,568.689163 1345.959222,575.773129 1352.701333,622.164792 1356.774353,678.988251 1353.334679,776.298025"/>
    <poly id="101929681" type="landuse.residential" color="235,235,227" fill="1" layer="-3.00" shape="882.362323,299.631443 910.054002,248.885380 916.868663,230.241043 889.312566,156.930319 907.901798,137.344423 949.010151,119.371621 958.229165,147.302180 951.821050,151.014087 946.853933,156.478054 944.202705,164.845452 950.604766,174.465176 957.514908,179.999891 963.818290,188.018968 971.053080,209.290235 976.310860,241.518952 977.452614,260.237206 978.360324,267.638894 982.335253,273.331484 1003.487717,293.885420 1011.437130,302.029203 1017.368552,309.540584 1027.662784,324.573484 1077.315293,399.387244 1074.927189,404.685572 1033.604652,434.054617 1029.038682,432.978077 1000.600315,388.154760 991.176021,378.580094 979.416887,368.599206 953.981277,349.927561 932.593061,332.820624 932.141836,320.433657 930.675726,314.118719 922.293671,308.241017 914.111012,309.960437 906.623148,317.811432 882.362323,299.631443"/>
    <poly id="101929691" type="landuse.residential" color="235,235,227" fill="1" layer="-3.00" shape="839.852813,586.761725 894.607398,635.679455 924.179115,669.027689 1156.322144,995.500020 1189.597464,971.926829 1227.585401,1028.535372 1241.201693,1018.797422 1256.340615,1007.893795 1266.640964,995.319483 1275.040962,980.794443 1284.740030,954.508978 1259.153596,945.503665 1215.009145,952.167112 1205.043056,917.948889 1179.932021,883.888728 1191.165618,876.740815 1118.879980,777.901058 1150.404829,756.509964 1126.267255,723.614185 1100.276206,738.088222 1068.397375,761.402901 1066.788908,774.666225 1090.293732,807.559465 1111.023483,831.633761 1121.440336,847.213087 1133.451524,866.512557 1136.600863,870.033532 1141.300988,872.733600 1152.732858,876.923693 1166.342437,894.859313 1165.887235,902.653047 1153.311887,911.658746 1146.184153,911.569849 1135.726306,897.454936 1077.063134,810.656370 1047.360840,775.074685 1044.054169,773.048808 1034.469894,760.573495 1029.836273,749.116494 998.675290,706.076506 1037.397444,696.687248 1041.314010,712.413398 1033.073726,717.572860 1031.074402,729.551087 1042.765795,744.703232 1060.440033,745.433160 1111.977563,710.725472 1147.340883,695.567853 1187.539844,683.423915 1226.315367,680.151364 1328.999489,683.333719 1336.354750,676.245405 1333.135896,632.983167 1323.792239,568.984867 1314.843419,563.328342 1255.169450,571.962240 1244.355121,570.938275 1237.394046,568.533063 1227.758180,560.874466 1221.592847,551.404464 1218.776759,537.511795 1202.932933,492.109196 1195.172909,475.266937 1187.962370,465.918410 1177.125819,458.566567 1173.119641,450.619994 1175.276976,442.008651 1184.028747,436.671520 1192.165419,437.470652 1197.643159,444.139454 1203.979717,460.462240 1220.828486,500.236596 1230.036472,531.596584 1234.052242,540.742188 1240.381393,549.238909 1245.943073,553.289780 1255.314873,556.302582 1263.538560,557.203441 1273.844025,557.450351 1310.653375,548.273510 1316.281190,539.071764 1295.341710,478.439382 1275.805777,438.462290 1252.878535,398.311279 1239.056924,375.420287 1218.380218,345.686131 1205.395855,341.206904 1192.196325,346.591330 1153.909594,367.146724 1126.147245,386.066745 1095.361647,409.982539 1081.974508,421.912023 1082.120419,425.434077 1101.123006,457.141236 1119.533407,487.814171 1126.749718,502.613245 1125.932859,508.600805 1119.931909,516.107014 1099.128868,521.969212 1093.125997,519.762398 1088.643365,516.090189 1087.246099,512.329913 1088.538303,503.755206 1101.759197,493.731369 1103.275227,485.516762 1090.079154,458.065750 1073.102445,433.573731 1066.389772,434.492850 1025.856992,459.927315 995.241090,473.189964 993.738256,477.530758 1011.887637,518.510644 1021.271550,546.677789 1023.990963,564.575724 1031.373669,576.647785 1044.922251,591.218860 1057.510726,597.110538 1069.233489,599.386728 1082.172251,599.846754 1127.210093,585.655233 1137.315036,574.264580 1152.982367,570.565839 1159.463134,579.054830 1159.166843,590.592911 1153.007913,596.352914 1146.480817,600.606310 1128.267389,601.729665 1087.842592,612.392008 1076.454374,614.385751 1058.969271,612.760825 1039.267315,604.504850 1023.749637,591.955474 1012.698655,578.504549 1005.658203,577.695887 972.925907,587.870721 933.819802,603.023556 927.285428,603.524649 918.112907,602.813648 890.728896,585.187143 883.027488,580.367742 880.566934,571.844262 881.002761,566.581025 883.685209,562.909854 881.620148,557.902788 864.360433,561.466333 839.852813,586.761725"/>
    <poly id="101929698" type="landuse.residential" color="235,235,227" fill="1" layer="-3.00" shape="1139.802455,716.760782 1161.930990,751.877197 1210.694833,735.224465 1295.348373,740.156312 1282.011989,844.177057 1269.570873,874.831837 1261.272371,888.792955 1305.745571,898.920421 1318.123462,861.348602 1325.866809,828.693183 1330.570277,797.303564 1335.636753,709.187163 1328.247493,701.888478 1209.897825,697.809439 1184.260965,701.368534 1163.097744,706.157405 1139.802455,716.760782"/>
    <poly id="101929704" type="landuse.residential" color="235,235,227" fill="1" layer="-3.00" shape="873.711027,498.153329 881.620148,557.902788 883.685209,562.909854 890.617864,558.454604 895.399732,558.625687 902.472638,561.211237 911.550436,583.388640 916.936027,588.967762 925.184273,591.601169 932.933212,590.982303 969.354170,576.359161 1002.741763,565.965541 1007.179997,559.835052 1001.940589,534.500225 978.495888,479.728808 944.042724,487.512614 910.338083,492.848316 873.711027,498.153329"/>
    <poly id="101929716" type="landuse.residential" color="235,235,227" fill="1" layer="-3.00" shape="875.513262,659.972072 661.063903,703.304587 667.982448,736.580001 677.385585,734.088246 684.218164,733.405152 691.998827,735.418023 696.916050,742.851936 697.138096,749.406121 694.441710,754.930729 688.492906,758.397201 682.043025,759.510492 674.445862,758.478476 659.105452,760.240922 640.673299,764.821848 628.105044,772.261770 616.159618,782.190728 607.681553,798.200945 604.193602,815.052984 601.432960,856.908304 597.392069,886.402883 599.244002,891.372055 632.456180,899.669296 660.110185,902.128039 659.963148,866.070211 638.221069,864.284725 640.799850,803.032747 737.943582,781.713036 745.833906,787.680048 758.276226,854.477689 741.863094,856.383349 736.676348,896.731451 756.519863,898.941395 769.870729,899.732795 779.511541,897.790043 788.257811,890.699272 794.023483,861.364450 794.797784,847.550093 792.917319,829.204185 780.416174,783.840483 772.037872,756.982699 767.168767,752.236220 762.659026,739.205481 763.329882,732.570917 764.524740,728.056915 770.933871,722.691161 780.512459,723.178079 784.278129,725.402806 786.772206,730.352671 788.114611,742.326208 786.291322,759.281293 807.453045,836.126733 814.680896,842.234603 840.035636,841.012638 846.869364,831.715412 855.730970,831.576039 862.445107,837.539435 863.779605,845.394477 859.629513,851.786511 852.107082,852.632285 831.217330,850.588404 815.305492,852.394153 810.097642,857.841702 807.189139,875.927525 801.665220,900.727514 804.932233,905.383447 832.568935,917.199004 855.479592,936.071050 862.885684,936.066367 895.671129,901.904771 931.625990,869.921393 938.881694,860.477908 943.978486,851.542291 945.130857,838.768542 941.692882,827.248800 908.067171,782.811477 882.699651,743.838291 866.140311,733.685791 857.060898,724.629158 851.360515,710.207088 851.844484,703.557336 864.971057,697.061747 875.992326,702.897243 881.106080,709.092075 900.888783,743.436446 945.276290,803.138997 970.267422,841.004792 979.064616,854.018015 948.097986,878.784173 907.015021,912.975610 875.797682,945.117910 871.963154,950.118178 873.977604,954.591306 888.350721,975.496822 899.912939,997.384356 904.069865,998.840529 909.417970,999.212667 923.156416,989.611082 947.300602,967.526629 965.275568,954.099016 969.940625,945.753384 973.820156,938.689359 991.139192,927.134464 999.612641,937.021339 1000.102679,945.190928 995.310666,950.780871 982.709525,958.098489 976.095998,959.763462 969.373037,962.358486 954.467579,973.166814 938.951826,988.657314 925.765217,999.924958 913.644006,1008.929144 911.190705,1017.200957 934.389428,1058.812943 941.229883,1060.227801 958.914345,1052.765932 976.901551,1047.763856 985.290967,1044.361570 1003.916395,1037.475184 1019.823135,1028.975335 1032.636515,1019.286779 1039.815240,1005.612228 1045.428999,992.181026 1054.740931,979.174657 1066.469677,978.342801 1073.442025,983.512411 1076.007998,989.262981 1074.571388,997.101898 1063.667021,1010.795065 1052.550036,1015.037033 1045.882106,1022.051328 1032.314658,1035.664129 1013.671465,1047.856239 989.050325,1059.129653 965.759085,1065.003881 950.639092,1072.976891 947.052587,1077.638493 964.253258,1100.903413 976.138414,1100.263796 997.060813,1086.145627 1003.407080,1085.296236 1033.195869,1122.678175 1054.629920,1105.940212 1067.561314,1094.522495 1074.642097,1080.435059 1077.275805,1076.141133 1084.123691,1070.274094 1091.331450,1068.744106 1100.477648,1072.318248 1104.282749,1080.915376 1097.809090,1090.054149 1088.282721,1098.182758 1078.720637,1101.004529 1070.443787,1109.049383 1039.051811,1132.452354 1025.835346,1145.084868 1024.492407,1148.629921 1040.369467,1172.121082 1060.725276,1197.441636 1065.345205,1199.740367 1111.026511,1176.216161 1118.238617,1169.180384 1128.882075,1151.518567 1133.866929,1146.077063 1142.158865,1144.692787 1151.184661,1147.254095 1154.877246,1157.336208 1151.743210,1164.139060 1138.477541,1174.539464 1127.658281,1176.157213 1073.555448,1213.129162 1099.310933,1263.432602 1130.619529,1303.100691 1136.599199,1302.720516 1266.323854,1210.584676 1267.604014,1193.562210 928.204593,717.291967 875.513262,659.972072"/>
    <poly id="101937799" type="landuse.residential" color="235,235,227" fill="1" layer="-3.00" shape="499.945062,738.319720 518.958622,867.580301 527.764797,876.897739 573.847704,883.079221 582.132743,877.932259 586.361536,840.260680 588.172465,812.893015 590.657910,801.536024 593.451602,793.604751 595.553340,787.156912 578.344837,776.134888 569.993167,773.743099 563.921341,774.276245 555.034158,781.286002 548.155849,781.612776 542.369678,777.645329 541.657261,771.513322 544.335608,765.189121 547.539447,761.729267 552.706399,760.599097 586.481560,769.208591 599.412729,774.509017 607.892367,772.274642 620.170101,760.599077 658.883162,740.255051 652.117268,705.706403 499.945062,738.319720"/>
    <poly id="101937801" type="landuse.residential" color="235,235,227" fill="1" layer="-3.00" shape="163.828816,912.271286 291.455843,887.251419 294.444828,883.842446 292.960676,873.486372 275.794752,832.881588 271.171509,829.938496 225.685606,839.631179 207.598962,841.032896 198.713353,835.354356 196.200107,831.291928 198.692466,820.456900 208.034560,815.477779 219.593351,814.265952 223.371828,821.186765 233.145332,825.796888 263.746178,818.220013 266.564415,812.842503 258.157936,786.527429 245.775373,719.219488 241.616191,717.063590 119.211155,744.239648 118.800427,774.335471 112.846407,785.338751 116.996086,809.051872 119.867832,815.864039 129.548160,822.281639 132.739288,829.567032 134.846635,839.537197 139.569098,869.645708 144.055894,886.528232 156.056352,907.849285 163.828816,912.271286"/>
    <poly id="101937806" type="landuse.residential" color="235,235,227" fill="1" layer="-3.00" shape="305.428659,849.904469 316.482228,879.474459 379.781811,867.418608 404.113422,865.720396 472.338432,872.509523 481.664203,862.978517 458.719872,704.470523 295.213038,737.786648 287.484699,707.368146 264.287197,712.232328 262.803923,717.694605 275.531703,773.731882 281.064202,774.630195 325.240821,764.475624 347.692892,761.504236 392.892895,761.173560 398.390612,766.100545 399.427081,772.894603 396.996750,778.469359 391.495687,782.644777 384.579629,782.659776 378.950105,781.715003 372.456303,779.541328 363.035729,772.652379 348.450427,773.298555 337.472249,775.267014 280.999855,786.917137 279.112633,793.325212 283.313464,803.341218 290.621896,821.206847 305.428659,849.904469"/>
    <poly id="101937807" type="landuse.residential" color="235,235,227" fill="1" layer="-3.00" shape="120.845705,590.931761 142.349678,585.664512 144.870566,584.498747 147.802907,581.232892 158.515244,546.278965 211.642330,570.078296 207.850029,573.547325 204.242402,596.635160 205.317341,604.917579 210.395636,614.331244 223.144459,625.489389 224.307775,628.523159 226.337405,693.250836 132.645994,671.725529 119.091925,593.690636 120.845705,590.931761"/>
    <poly id="101937816" type="landuse.residential" color="235,235,227" fill="1" layer="-3.00" shape="226.612465,611.611983 230.359280,610.217759 252.924871,609.369346 255.784003,650.903850 264.262716,697.900927 243.074534,700.544578 239.493781,698.834284 237.389099,635.492546 233.381559,635.770996 233.054545,623.453265 231.579406,619.602315 226.612465,611.611983"/>
    <poly id="135731329" type="amenity.parking" color="184,184,179" fill="1" layer="-1.00" shape="391.505647,478.722119 318.682247,509.484568 322.112229,518.884239 348.411950,577.394569 355.514616,579.836928 406.931181,580.452794 414.806913,571.200922 417.476337,554.708427 393.738742,484.587750 391.505647,478.722119"/>
    <poly id="28594108" type="amenity.school" color="237,199,199" fill="1" layer="-1.00" shape="1118.879980,777.901058 1191.165618,876.740815 1179.932021,883.888728 1205.043056,917.948889 1215.009145,952.167112 1259.153596,945.503665 1284.740030,954.508978 1305.745571,898.920421 1261.272371,888.792955 1269.570873,874.831837 1282.011989,844.177057 1295.348373,740.156312 1210.694833,735.224465 1161.930990,751.877197 1139.802455,716.760782 1126.267255,723.614185 1150.404829,756.509964 1118.879980,777.901058"/>
    <poly id="305526156" type="amenity.place_of_worship" color="237,199,199" fill="1" layer="-1.00" shape="305.248775,641.786700 302.882946,644.010467 301.189007,642.008535 292.225995,652.879367 289.955584,650.343069 286.542086,654.419867 286.327943,662.563007 290.845852,671.120688 294.892626,673.118690 296.844580,671.074563 307.608697,676.427860 308.838332,681.316869 315.298819,684.599927 319.200778,700.525981 316.780633,701.161178 318.370337,708.733317 317.528938,714.187467 327.092029,711.721802 325.995066,704.437978 334.336644,702.811382 329.240422,676.313607 338.870662,674.848456 336.649237,662.755639 334.183639,660.992118 320.079728,664.079811 320.189393,659.075849 326.655133,658.051987 328.927264,656.037071 329.755411,652.813848 329.503946,650.055391 318.442410,652.987742 313.778342,643.372318 311.942366,641.345074 307.667716,639.985918 305.248775,641.786700"/>
    <poly id="305526156#1" type="building.yes" color="255,230,230" fill="1" layer="-1.00" shape="305.248775,641.786700 302.882946,644.010467 301.189007,642.008535 292.225995,652.879367 289.955584,650.343069 286.542086,654.419867 286.327943,662.563007 290.845852,671.120688 294.892626,673.118690 296.844580,671.074563 307.608697,676.427860 308.838332,681.316869 315.298819,684.599927 319.200778,700.525981 316.780633,701.161178 318.370337,708.733317 317.528938,714.187467 327.092029,711.721802 325.995066,704.437978 334.336644,702.811382 329.240422,676.313607 338.870662,674.848456 336.649237,662.755639 334.183639,660.992118 320.079728,664.079811 320.189393,659.075849 326.655133,658.051987 328.927264,656.037071 329.755411,652.813848 329.503946,650.055391 318.442410,652.987742 313.778342,643.372318 311.942366,641.345074 307.667716,639.985918 305.248775,641.786700"/>
    <poly id="305526409" type="landuse.retail" color="194,194,130" fill="1" layer="-3.00" shape="600.858329,581.790420 501.699811,603.630472 494.746328,612.280980 490.902708,621.354796 490.147986,632.216835 499.945062,738.319720 652.117268,705.706403 661.063903,703.304587 875.513262,659.972072 771.016110,569.738437 756.877628,561.381407 747.043192,558.746450 737.187584,557.487487 719.528770,556.068964 698.578068,554.400796 600.858329,581.790420"/>
    <poly id="305526411" type="landuse.retail" color="194,194,130" fill="1" layer="-3.00" shape="22.781508,423.591440 14.147970,436.089913 -11.988589,497.313230 33.812331,494.722114 52.265701,496.070710 83.506841,501.507409 119.216056,507.608155 154.216850,515.535908 178.153150,525.318852 318.836722,585.793415 349.791673,589.668751 375.305645,589.694966 403.286859,588.154469 416.029638,582.916620 418.586148,578.088364 422.515471,555.340536 414.666210,505.615594 403.417769,474.376347 316.199187,277.172421 271.646753,297.264698 252.271100,301.013708 213.655026,329.161688 144.509567,286.539444 56.002341,356.684610 37.939036,400.912596 22.781508,423.591440"/>
    <poly id="305526412" type="landuse.retail" color="194,194,130" fill="1" layer="-3.00" shape="300.153260,-14.459049 297.699243,-9.018050 296.142262,17.289546 308.164033,118.080132 314.359955,151.706457 349.734708,254.329758 352.600308,262.640299 368.750449,302.379110 402.941189,394.841306 444.546326,498.333171 464.678566,560.970637 469.013837,564.850873 474.850035,566.932379 489.403134,568.960543 505.240702,568.086252 727.064837,516.282860 733.139763,511.931084 734.021702,491.569744 709.163879,172.284517 698.697815,78.777504 652.750435,-152.087349 645.770068,-150.319699 570.900531,-134.486098 420.537030,-102.834506 411.513587,-101.367119 408.353231,-107.608296 279.064370,-83.323335 281.322299,-61.938464 289.509688,-52.501051 300.278348,-46.992174 312.955921,-41.163950 312.372201,-41.365456 306.888752,-17.241949 300.153260,-14.459049"/>
    <poly id="331028955" type="building.yes" color="255,230,230" fill="1" layer="-1.00" shape="245.910953,544.754409 259.690601,517.427138 247.234976,511.193032 233.455294,538.520284 245.910953,544.754409"/>
    <poly id="331028961" type="building.yes" color="255,230,230" fill="1" layer="-1.00" shape="231.151117,537.526210 236.796963,526.338496 224.402960,520.139010 218.757102,531.326716 231.151117,537.526210"/>
    <poly id="337556048" type="amenity.place_of_worship" color="237,199,199" fill="1" layer="-1.00" shape="827.923841,562.934540 874.749878,555.832272 871.567792,535.060219 841.077659,539.688863 840.345113,534.877416 833.317167,535.944875 834.049710,540.756323 824.750772,542.162659 827.923841,562.934540"/>
    <poly id="337556048#1" type="building.yes" color="255,230,230" fill="1" layer="-1.00" shape="827.923841,562.934540 874.749878,555.832272 871.567792,535.060219 841.077659,539.688863 840.345113,534.877416 833.317167,535.944875 834.049710,540.756323 824.750772,542.162659 827.923841,562.934540"/>
    <poly id="337556069" type="building.yes" color="255,230,230" fill="1" layer="-1.00" shape="803.118225,645.479963 831.113556,640.030967 829.188893,630.231520 801.193592,635.680507 803.118225,645.479963"/>
    <poly id="362326883" type="amenity.parking" color="184,184,179" fill="1" layer="-1.00" shape="869.507437,499.659951 867.422244,500.469127 820.658815,515.320890 815.438413,522.166828 812.941460,527.951139 810.751327,540.491291 810.707782,547.783402 822.522277,546.265556 821.892861,542.444310 827.657715,540.860829 826.729743,537.243968 838.174843,534.685676 839.442936,538.642986 861.544415,533.731130 873.170649,525.737482 869.507437,499.659951"/>
    <poly id="362326884" type="amenity.parking" color="184,184,179" fill="1" layer="-1.00" shape="254.290696,604.792544 258.351458,652.492018 268.328231,695.792134 283.386553,692.669939 277.015649,653.589412 293.051614,633.915453 324.883984,641.273485 332.059751,643.229036 335.454472,650.174693 350.292385,722.587042 359.764608,720.607775 380.974592,716.154915 364.395297,634.946117 350.958022,630.389061 310.703201,620.626415 303.707464,618.996707 261.417025,603.716612 254.290696,604.792544"/>
    <poly id="362326888" type="leisure.park" color="207,245,201" fill="1" layer="-2.00" shape="132.645994,671.725529 226.337405,693.250836 225.881724,706.716967 141.001009,721.894827 132.645994,671.725529"/>
    <poly id="362326903" type="building.yes" color="255,230,230" fill="1" layer="-1.00" shape="632.061323,624.022602 645.742654,621.502385 639.889778,590.037443 626.208494,592.557648 632.061323,624.022602"/>
    <poly id="362326905" type="building.yes" color="255,230,230" fill="1" layer="-1.00" shape="547.766215,518.487419 552.315904,532.928950 569.661068,527.503008 565.111354,513.061487 547.766215,518.487419"/>
    <poly id="362326906" type="building.yes" color="255,230,230" fill="1" layer="-1.00" shape="587.110625,606.077324 593.336048,635.985286 609.530716,632.643183 603.304997,602.746330 587.110625,606.077324"/>
    <poly id="362326909" type="building.yes" color="255,230,230" fill="1" layer="-1.00" shape="735.512080,598.245396 761.786326,593.658144 758.733432,576.363332 732.467901,580.961863 735.512080,598.245396"/>
    <poly id="362326910" type="building.yes" color="255,230,230" fill="1" layer="-1.00" shape="501.992808,634.207870 534.844845,627.967028 531.324576,609.651726 498.481270,615.903842 501.992808,634.207870"/>
    <poly id="362326911" type="building.yes" color="255,230,230" fill="1" layer="-1.00" shape="177.447734,509.129802 188.478380,484.439785 176.810551,479.266304 168.703810,497.415585 170.354416,498.140028 167.430238,504.691846 177.447734,509.129802"/>
    <poly id="362326912" type="building.yes" color="255,230,230" fill="1" layer="-1.00" shape="285.109524,553.084459 309.127417,564.034369 310.344245,561.374696 313.961796,563.030267 317.059250,556.293492 289.423588,543.699119 285.109524,553.084459"/>
    <poly id="362326954" type="landuse.residential" color="235,235,227" fill="1" layer="-3.00" shape="823.042956,412.770596 832.232171,485.691168 859.208669,479.942330 885.367756,476.118143 910.290744,472.988406 915.682761,467.256220 904.457372,416.936406 900.130973,411.014091 892.245276,406.479275 886.043601,404.811889 877.990636,406.301003 859.289272,415.494298 854.538199,415.956595 846.204082,409.513741 823.042956,412.770596"/>
    <poly id="61645527" type="building.yes" color="255,230,230" fill="1" layer="-1.00" shape="473.352878,451.764386 452.971009,389.143651 474.277624,382.272799 470.603576,370.991851 518.404175,355.576398 522.804871,369.082246 569.716725,353.957869 589.372714,414.353380 473.352878,451.764386"/>
    <poly id="61645527#1" type="shop.supermarket" color="237,199,255" fill="1" layer="-1.00" shape="473.352878,451.764386 452.971009,389.143651 474.277624,382.272799 470.603576,370.991851 518.404175,355.576398 522.804871,369.082246 569.716725,353.957869 589.372714,414.353380 473.352878,451.764386"/>
    <poly id="61645540" type="building.yes" color="255,230,230" fill="1" layer="-1.00" shape="672.180100,490.095045 627.887229,361.069839 687.494576,340.794439 700.932677,379.929258 690.670316,383.423473 705.692023,427.166348 714.930739,424.027143 722.035026,444.729656 713.747753,447.556662 722.477700,472.979164 672.180100,490.095045"/>
    <poly id="61645540#1" type="shop.department_store" color="237,199,255" fill="1" layer="-1.00" shape="672.180100,490.095045 627.887229,361.069839 687.494576,340.794439 700.932677,379.929258 690.670316,383.423473 705.692023,427.166348 714.930739,424.027143 722.035026,444.729656 713.747753,447.556662 722.477700,472.979164 672.180100,490.095045"/>
    <poly id="61645620" type="amenity.parking" color="184,184,179" fill="1" layer="-1.00" shape="443.606900,467.985805 591.335676,417.093780 579.200164,377.909569 625.750540,361.789023 667.333969,494.085140 727.721940,474.825540 727.833312,497.850536 723.214540,512.635377 664.223293,526.697151 613.554543,538.354212 600.544354,537.903003 585.473474,496.012649 582.739145,497.162768 533.527366,510.249908 545.469873,551.738871 503.696379,562.912873 472.451665,561.285167 443.606900,467.985805"/>
    <poly id="61645708" type="building.yes" color="255,230,230" fill="1" layer="-1.00" shape="193.919079,431.409427 221.201402,362.562385 232.584625,357.949943 295.898415,505.666107 282.039705,511.401039 269.706127,507.323158 245.939060,457.304518 193.919079,431.409427"/>
    <poly id="61645708#1" type="landuse.retail" color="194,194,130" fill="1" layer="-3.00" shape="193.919079,431.409427 221.201402,362.562385 232.584625,357.949943 295.898415,505.666107 282.039705,511.401039 269.706127,507.323158 245.939060,457.304518 193.919079,431.409427"/>