<?xml version="1.0" encoding="UTF-8"?>
<!-- generated on 2020-04-02 22:48:04.326000 by randomtrips.py v1_5_0+0000-3a3be608d2
  options: -n osm.net.xml -e 50
-->
<routes xmlns:xsi="http://www.w3.org/2001/XMLSchema-instance" xsi:noNamespaceSchemaLocation="http://sumo.dlr.de/xsd/routes_file.xsd">
    <trip id="0" depart="0.00" from="620377512" to="624439645"/>
    <trip id="1" depart="1.00" from="-28573015#0" to="122089583#1-AddedOffRampEdge"/>
    <trip id="2" depart="2.00" from="28573015#0" to="620377502#1"/>
    <trip id="3" depart="3.00" from="620377515" to="28641507"/>
    <trip id="4" depart="4.00" from="669665011" to="28597169"/>
    <trip id="5" depart="5.00" from="624439627" to="28592666"/>
    <trip id="6" depart="6.00" from="7635630#1" to="28573026#2"/>
    <trip id="7" depart="7.00" from="207149704#0" to="28592666"/>
    <trip id="8" depart="8.00" from="547793365" to="28573048"/>
    <trip id="9" depart="9.00" from="28572986" to="28573015#0"/>
    <trip id="10" depart="10.00" from="122089525" to="-28594060#0"/>
    <trip id="11" depart="11.00" from="28592678" to="624439627"/>
    <trip id="12" depart="12.00" from="669665013" to="669665011"/>
    <trip id="13" depart="13.00" from="669665013" to="-28594060#0"/>
    <trip id="14" depart="14.00" from="669665015#1" to="7635630#0"/>
    <trip id="15" depart="15.00" from="28594060#0" to="619526569#1"/>
    <trip id="16" depart="16.00" from="207149704#0" to="669665015#1"/>
    <trip id="17" depart="17.00" from="620377502#0" to="-28573015#0"/>
    <trip id="18" depart="18.00" from="28573015#0" to="547793367"/>
    <trip id="19" depart="19.00" from="-28573015#0" to="28597169"/>
    <trip id="20" depart="20.00" from="28573025" to="28573015#0"/>
    <trip id="21" depart="21.00" from="122089526" to="28572986"/>
    <trip id="22" depart="22.00" from="7637388#0" to="620377494"/>
    <trip id="23" depart="23.00" from="122089583#1-AddedOffRampEdge" to="624439627"/>
    <trip id="24" depart="24.00" from="619526570" to="28573013"/>
    <trip id="25" depart="25.00" from="547625727" to="547793367"/>
    <trip id="26" depart="26.00" from="619526567" to="207149704#0"/>
    <trip id="27" depart="27.00" from="547793365" to="619526564#1"/>
    <trip id="28" depart="28.00" from="620377494" to="28641508"/>
    <trip id="29" depart="29.00" from="28597169" to="619526563"/>
    <trip id="30" depart="30.00" from="619526569#1" to="-28573015#0"/>
    <trip id="31" depart="31.00" from="-28573015#0" to="28573047"/>
    <trip id="32" depart="32.00" from="619526569#1" to="28592678"/>
    <trip id="33" depart="33.00" from="619526570" to="122089583#1"/>
    <trip id="34" depart="34.00" from="619526565" to="620377517"/>
    <trip id="35" depart="35.00" from="619526569#1" to="28573026#1"/>
    <trip id="36" depart="36.00" from="159605088" to="28592678"/>
    <trip id="37" depart="37.00" from="7635630#1" to="619526563"/>
    <trip id="38" depart="38.00" from="669665014" to="28572986"/>
    <trip id="39" depart="39.00" from="619526568" to="28573015#0"/>
    <trip id="40" depart="40.00" from="207149704#1" to="28597169"/>
    <trip id="41" depart="41.00" from="620377514#1" to="122089583#0"/>
    <trip id="42" depart="42.00" from="619526567" to="28572986"/>
    <trip id="43" depart="43.00" from="669665015#1" to="28592015"/>
    <trip id="44" depart="44.00" from="28573026#1" to="-28573015#0"/>
    <trip id="45" depart="45.00" from="669665013" to="158617319"/>
    <trip id="46" depart="46.00" from="7635630#1" to="28573048"/>
    <trip id="47" depart="47.00" from="28597169" to="624439645"/>
    <trip id="48" depart="48.00" from="669665015#1" to="28592678"/>
    <trip id="49" depart="49.00" from="28573013" to="620377502#1"/>
</routes>
