<routes>
        <vType id="type1" lcStrategic="100" lcKeepRight="100" lcSpeedGain="100" lcCooperative="1" lcSublane="100" />
    <route id="rse4235" edges="619523290#0 619523290#1 619523288 61645695 628341438#0 628341438#1" />
    <route id="rnw4235" edges="-628341438#1 -628341438#0 gneE6 619523287#0.17 619523287#1" />
    <route id="rnorth4219" edges="620377515  122089525 122089525.34 620377496 620377502#0 620377502#1 620377501#0" />
    <route id="rsouth4219" edges="620377506 620377506.61 28597169 620377494 547625725" />
    <route id="rsouth4220" edges="gneE10 gneE73 gneE79 gneE41" />
    <route id="rnorth4221" edges="-620463733 -620377511 -112543664 28573008 547793367 620377512 28573048 669665014 669665015#1 28594060#0 28594060#1 28594060#2 28594060#3 28594060#4" />
    <route id="rsouth4221" edges="-28594060#4 -28594060#3 -28594060#2 -28594060#1 -28594060#0 669665013 669665011 7635630#0 7635630#1 207149704#0 207149704#1 112543664 620377510 620463733" />
    <route id="rne4221" edges="-620463733 -620377511 -112543664 28573008 547793367 620377512 7637388#0 7637388#1 28573015#0 28573015#1 28573015#2 28573015#3 28573015#4 28573015#5 28573015#6" />
    <route id="rse4221" edges="-28594060#4 -28594060#3 -28594060#2 -28594060#1 -28594060#0 669665013 669665011 7635630#0 28572986 7637388#1 28573015#0 28573015#1 28573015#2 28573015#3 28573015#4 28573015#5 28573015#6" />
    <route id="rnw4221" edges="-28573015#6 -28573015#5 -28573015#4 -28573015#3 -28573015#2 -28573015#1 -28573015#0 28573025 28573025.46 28573025.65 28573048 669665014 669665015#1 28594060#0 28594060#1 28594060#2 28594060#3 28594060#4" />
    <route id="r4235e4219n" edges="619523290#0 619523290#1 619523288 619526570#0 619526570#1 620377514#1 619526569#1 619526568 619526567 gneE1 gneE1.31 620377502#0 620377502#1 620377501#0" />
    <route id="r4235n4219n" edges="-628341438#1 -628341438#0 -61645695 619526570#0 619526570#1 620377514#1 619526569#1 619526568 619526567 gneE1 gneE1.31 620377502#0 620377502#1 620377501#0" />
    <route id="r4235e4219s" edges="619523290#0 619523290#1 619523288 619526570#0 619526570#1 620377514#1 619526569#1 619526568 619526567 619526566 28597169 620377494 547625725" />
    <route id="r4235n4219s" edges="-628341438#1 -628341438#0 -61645695 619526570#0 619526570#1 620377514#1 619526569#1 619526568 619526567 619526566 28597169 620377494 547625725" />
    <route id="r4235e4220n" edges="619523290#0 619523290#1 619523288 619526570#0 619526570#1 620377514#1 619526569#1 619526568 619526567 619526566 122089528#1 620377517 gneE3 gneE44" />
    <route id="r4235n4220n" edges="-628341438#1 -628341438#0 -61645695 619526570#0 619526570#1 620377514#1 619526569#1 619526568 619526567 619526566 122089528#1 620377517 gneE3 gneE44" />
    <route id="r4235e4220s" edges="619523290#0 619523290#1 619523288 619526570#0 619526570#1 620377514#1 619526569#1 619526568 619526567 619526566 122089528#1 620377517 gneE74 gneE79 gneE41" />
    <route id="r4235n4220s" edges="-628341438#1 -628341438#0 -61645695 619526570#0 619526570#1 620377514#1 619526569#1 619526568 619526567 619526566 122089528#1 620377517 gneE74 gneE79 gneE41" />
    <route id="r4219s4220n" edges="620377506 gneE2 620377517 gneE3 gneE44" />
    <route id="r4219s4220s" edges="620377506 gneE2 620377517 gneE74 gneE79 gneE41" />
    <route id="r4219n4220n" edges="620377515  122089525 122089525.34 122089528#1 620377517 gneE3 gneE44" />
    <route id="r4219n4220s" edges="620377515  122089525 122089525.34 122089528#1 620377517 gneE74 gneE79 gneE41" />
    <route id="r4235e4221n" edges="619523290#0 619523290#1 619523288 619526570#0 619526570#1 620377514#1 619526569#1 619526568 619526567 619526566 122089528#1 620377517 gneE74 gneE72 gneE80 gneE81 gneE83 669665014 669665015#1 28594060#0 28594060#1 28594060#2 28594060#3 28594060#4" />
    <route id="r4235n4221n" edges="-628341438#1 -628341438#0 -61645695 619526570#0 619526570#1 620377514#1 619526569#1 619526568 619526567 619526566 122089528#1 620377517 gneE74 gneE72 gneE80 gneE81 gneE83 669665014 669665015#1 28594060#0 28594060#1 28594060#2 28594060#3 28594060#4" />
    <route id="r4235e4221s" edges="619523290#0 619523290#1 619523288 619526570#0 619526570#1 620377514#1 619526569#1 619526568 619526567 619526566 122089528#1 620377517 gneE74 gneE72 gneE80 gneE81 gneE82 207149704#0 207149704#1 112543664 620377510 620463733" />
    <route id="r4235n4221s" edges="-628341438#1 -628341438#0 -61645695 619526570#0 619526570#1 620377514#1 619526569#1 619526568 619526567 619526566 122089528#1 620377517 gneE74 gneE72 gneE80 gneE81 gneE82 207149704#0 207149704#1 112543664 620377510 620463733" />
    <route id="r4219s4221n" edges="620377506 gneE2 620377517 gneE74 gneE72 gneE80 gneE81 gneE83 669665014 669665015#1 28594060#0 28594060#1 28594060#2 28594060#3 28594060#4" />
    <route id="r4219s4221s" edges="620377506 gneE2 620377517 gneE74 gneE72 gneE80 gneE81 gneE82 207149704#0 207149704#1 112543664 620377510 620463733" />
    <route id="r4219n4221n" edges="620377515  122089525 122089525.34 122089528#1 620377517 gneE74 gneE72 gneE80 gneE81 gneE83 669665014 669665015#1 28594060#0 28594060#1 28594060#2 28594060#3 28594060#4" />
    <route id="r4219n4221s" edges="620377515  122089525 122089525.34 122089528#1 620377517 gneE74 gneE72 gneE80 gneE81 gneE82 207149704#0 207149704#1 112543664 620377510 620463733" />
    <route id="r4220s4221n" edges="gneE10 28641508 gneE80 gneE81 gneE83 669665014 669665015#1 28594060#0 28594060#1 28594060#2 28594060#3 28594060#4" />
    <route id="r4220s4221s" edges="gneE10 28641508 gneE80 gneE81 gneE82 207149704#0 207149704#1 112543664 620377510 620463733" />
    <route id="r4235e4221e" edges="619523290#0 619523290#1 619523288 619526570#0 619526570#1 620377514#1 619526569#1 619526568 619526567 619526566 122089528#1 620377517 gneE74 gneE72 gneE80 gneE81 gneE82 7637388#0 7637388#1 28573015#0 28573015#1 28573015#2 28573015#3 28573015#4 28573015#5 28573015#6" />
    <route id="r4235n4221e" edges="-628341438#1 -628341438#0 -61645695 619526570#0 619526570#1 620377514#1 619526569#1 619526568 619526567 619526566 122089528#1 620377517 gneE74 gneE72 gneE80 gneE81 gneE82 7637388#0 7637388#1 28573015#0 28573015#1 28573015#2 28573015#3 28573015#4 28573015#5 28573015#6" />
    <route id="r4219s4221e" edges="620377506 gneE2 620377517  gneE74 gneE72 gneE80 gneE81 gneE82 7637388#0 7637388#1 28573015#0 28573015#1 28573015#2 28573015#3 28573015#4 28573015#5 28573015#6" />
    <route id="r4219n4221e" edges="620377515  122089525 122089525.34 122089528#1 620377517 gneE74 gneE72 gneE80 gneE81 gneE82 7637388#0 7637388#1 28573015#0 28573015#1 28573015#2 28573015#3 28573015#4 28573015#5 28573015#6" />
    <route id="r4220s4221e" edges="gneE10 28641508 gneE80 gneE81 gneE82 7637388#0 7637388#1 28573015#0 28573015#1 28573015#2 28573015#3 28573015#4 28573015#5 28573015#6" />
    <route id="r4221s4220n" edges="-28594060#4 -28594060#3 -28594060#2 -28594060#1 -28594060#0 669665013 669665011 7635630#0 7635630#1 624439627 547793365 158617319 gneE77 gneE76 gneE44" />
    <route id="r4221n4220n" edges="-620463733 -620377511 -112543664 28573008 28573013 547793365 158617319 gneE77 gneE76 gneE44" />
    <route id="r4221w4220n" edges="-28573015#6 -28573015#5 -28573015#4 -28573015#3 -28573015#2 -28573015#1 -28573015#0 28573025 28573025.46 28573025.65 624439627 547793365 158617319 gneE77 gneE76 gneE44" />
    <route id="r4221s4220s" edges="-28594060#4 -28594060#3 -28594060#2 -28594060#1 -28594060#0 669665013 669665011 7635630#0 7635630#1 624439627 547793365 158617319 620377513 gneE41" />
    <route id="r4221n4220s" edges="-620463733 -620377511 -112543664 28573008 28573013 547793365 158617319 620377513 gneE41" />
    <route id="r4221w4220s" edges="-28573015#6 -28573015#5 -28573015#4 -28573015#3 -28573015#2 -28573015#1 -28573015#0 28573025 28573025.46 28573025.65 624439627 547793365 158617319 620377513 gneE41" />
    <route id="r4220s4219n" edges="gneE10 gneE73 gneE75 619526565 547625727 620377496 620377502#0 620377502#1 620377501#0" />
    <route id="r4220n4219n" edges="gneE47 gneE78 gneE75 619526565 547625727 620377496 620377502#0 620377502#1 620377501#0" />
    <route id="r4221s4219n" edges="-28594060#4 -28594060#3 -28594060#2 -28594060#1 -28594060#0 669665013 669665011 7635630#0 7635630#1 624439627 547793365 158617319 gneE77 gneE75 619526565 547625727 620377496 620377502#0 620377502#1 620377501#0" />
    <route id="r4221n4219n" edges="-620463733 -620377511 -112543664 28573008 28573013 547793365 158617319 gneE77 gneE75 619526565 547625727 620377496 620377502#0 620377502#1 620377501#0" />
    <route id="r4221w4219n" edges="-28573015#6 -28573015#5 -28573015#4 -28573015#3 -28573015#2 -28573015#1 -28573015#0 28573025 28573025.46 28573025.65 624439627 547793365 158617319 gneE77 gneE75 619526565 547625727 620377496 620377502#0 620377502#1 620377501#0" />
    <route id="r4220s4219s" edges="gneE10 gneE73 gneE75 619526565 28592678 620377494 547625725" />
    <route id="r4220n4219s" edges="gneE47 gneE78 gneE75 619526565 28592678 620377494 547625725" />
    <route id="r4221s4219s" edges="-28594060#4 -28594060#3 -28594060#2 -28594060#1 -28594060#0 669665013 669665011 7635630#0 7635630#1 624439627 547793365 158617319 gneE77 gneE75 619526565 28592678 620377494 547625725" />
    <route id="r4221n4219s" edges="-620463733 -620377511 -112543664 28573008 28573013 547793365 158617319 gneE77 gneE75 619526565 28592678 620377494 547625725" />
    <route id="r4221w4219s" edges="-28573015#6 -28573015#5 -28573015#4 -28573015#3 -28573015#2 -28573015#1 -28573015#0 28573025 28573025.46 28573025.65 624439627 547793365 158617319 gneE77 gneE75 619526565 28592678 620377494 547625725" />
    <route id="r4219s4235s" edges="620377506 620377506.61 122089526 122089583#0 122089583#1 122089583#1-AddedOffRampEdge 620377490 628341438#0 628341438#1" />
    <route id="r4219n4235s" edges="620377515 28592666 122089583#0 122089583#1 122089583#1-AddedOffRampEdge 620377490 628341438#0 628341438#1" />
    <route id="r4221s4235s" edges="-28594060#4 -28594060#3 -28594060#2 -28594060#1 -28594060#0 669665013 669665011 7635630#0 7635630#1 624439627 547793365 158617319 gneE77 gneE75 619526565 547625727 122089526 122089583#0 122089583#1 122089583#1-AddedOffRampEdge 620377490 628341438#0 628341438#1" />
    <route id="r4221n4235s" edges="-620463733 -620377511 -112543664 28573008 28573013 547793365 158617319 gneE77 gneE75 619526565 547625727 122089526 122089583#0 122089583#1 122089583#1-AddedOffRampEdge 620377490 628341438#0 628341438#1" />
    <route id="r4221w4235s" edges="-28573015#6 -28573015#5 -28573015#4 -28573015#3 -28573015#2 -28573015#1 -28573015#0 28573025 28573025.46 28573025.65 624439627 547793365 158617319 gneE77 gneE75 619526565 547625727 122089526 122089583#0 122089583#1 122089583#1-AddedOffRampEdge 620377490 628341438#0 628341438#1" />
    <route id="r4220s4235s" edges="gneE10 gneE73 gneE75 619526565 547625727 122089526 122089583#0 122089583#1 122089583#1-AddedOffRampEdge 620377490 628341438#0 628341438#1" />
    <route id="r4220n4235s" edges="gneE47 gneE78 gneE75 619526565 547625727 122089526 122089583#0 122089583#1 122089583#1-AddedOffRampEdge 620377490 628341438#0 628341438#1" />
    <route id="r4219s4235w" edges="620377506 620377506.61 122089526 122089583#0 122089583#1 122089583#1-AddedOffRampEdge 619523286 619523287#0 619523287#0.17 619523287#1" />
    <route id="r4219n4235w" edges="620377515 28592666 122089583#0 122089583#1 122089583#1-AddedOffRampEdge 619523286 619523287#0 619523287#0.17 619523287#1" />
    <route id="r4221s4235w" edges="-28594060#4 -28594060#3 -28594060#2 -28594060#1 -28594060#0 669665013 669665011 7635630#0 7635630#1 624439627 547793365 158617319 gneE77 gneE75 619526565 547625727 122089526 122089583#0 122089583#1 122089583#1-AddedOffRampEdge 619523286 619523287#0 619523287#0.17 619523287#1" />
    <route id="r4221n4235w" edges="-620463733 -620377511 -112543664 28573008 28573013 547793365 158617319 gneE77 gneE75 619526565 547625727 122089526 122089583#0 122089583#1 122089583#1-AddedOffRampEdge 619523286 619523287#0 619523287#0.17 619523287#1" />
    <route id="r4221w4235w" edges="-28573015#6 -28573015#5 -28573015#4 -28573015#3 -28573015#2 -28573015#1 -28573015#0 28573025 28573025.46 28573025.65 624439627 547793365 158617319 gneE77 gneE75 619526565 547625727 122089526 122089583#0 122089583#1 122089583#1-AddedOffRampEdge 619523286 619523287#0 619523287#0.17 619523287#1" />
    <route id="r4220s4235w" edges="gneE10 gneE73 gneE75 619526565 547625727 122089526 122089583#0 122089583#1 122089583#1-AddedOffRampEdge 619523286 619523287#0 619523287#0.17 619523287#1" />
    <route id="r4220n4235w" edges="gneE47 gneE78 gneE75 619526565 547625727 122089526 122089583#0 122089583#1 122089583#1-AddedOffRampEdge 619523286 619523287#0 619523287#0.17 619523287#1" />
    <vehicle id="4235e4221n_0" type="type1" route="r4235e4221n" depart="4" />
    <vehicle id="4235e4219s_1" type="type1" route="r4235e4219s" depart="7" />
    <vehicle id="4220s4219n_2" type="type1" route="r4220s4219n" depart="31" />
    <vehicle id="4235e4219n_3" type="type1" route="r4235e4219n" depart="33" />
    <vehicle id="4235e4221n_4" type="type1" route="r4235e4221n" depart="38" />
    <vehicle id="4220s4219n_5" type="type1" route="r4220s4219n" depart="43" />
    <vehicle id="4235n4221e_6" type="type1" route="r4235n4221e" depart="52" />
    <vehicle id="4235e4220n_7" type="type1" route="r4235e4220n" depart="61" />
    <vehicle id="4221s4235w_8" type="type1" route="r4221s4235w" depart="64" />
    <vehicle id="se4235_9" type="type1" route="rse4235" depart="65" />
    <vehicle id="south4220_10" type="type1" route="rsouth4220" depart="65" />
    <vehicle id="4235e4219n_11" type="type1" route="r4235e4219n" depart="71" />
    <vehicle id="north4219_12" type="type1" route="rnorth4219" depart="75" />
    <vehicle id="4235e4219n_13" type="type1" route="r4235e4219n" depart="76" />
    <vehicle id="north4219_14" type="type1" route="rnorth4219" depart="78" />
    <vehicle id="south4221_15" type="type1" route="rsouth4221" depart="82" />
    <vehicle id="south4220_16" type="type1" route="rsouth4220" depart="89" />
    <vehicle id="nw4235_17" type="type1" route="rnw4235" depart="99" />
    <vehicle id="4235e4219s_18" type="type1" route="r4235e4219s" depart="101" />
    <vehicle id="north4219_19" type="type1" route="rnorth4219" depart="106" />
    <vehicle id="north4221_20" type="type1" route="rnorth4221" depart="107" />
    <vehicle id="4235e4219n_21" type="type1" route="r4235e4219n" depart="107" />
    <vehicle id="4221n4219n_22" type="type1" route="r4221n4219n" depart="107" />
    <vehicle id="north4219_23" type="type1" route="rnorth4219" depart="108" />
    <vehicle id="4235e4219n_24" type="type1" route="r4235e4219n" depart="111" />
    <vehicle id="south4219_25" type="type1" route="rsouth4219" depart="118" />
    <vehicle id="se4235_26" type="type1" route="rse4235" depart="124" />
    <vehicle id="4219s4235w_27" type="type1" route="r4219s4235w" depart="129" />
    <vehicle id="north4221_28" type="type1" route="rnorth4221" depart="134" />
    <vehicle id="4235e4221e_29" type="type1" route="r4235e4221e" depart="135" />
    <vehicle id="south4219_30" type="type1" route="rsouth4219" depart="137" />
    <vehicle id="north4221_31" type="type1" route="rnorth4221" depart="137" />
    <vehicle id="south4219_32" type="type1" route="rsouth4219" depart="138" />
    <vehicle id="4235e4219n_33" type="type1" route="r4235e4219n" depart="139" />
    <vehicle id="4235e4219n_34" type="type1" route="r4235e4219n" depart="142" />
    <vehicle id="4221n4235w_35" type="type1" route="r4221n4235w" depart="144" />
    <vehicle id="4219s4221s_36" type="type1" route="r4219s4221s" depart="146" />
    <vehicle id="south4220_37" type="type1" route="rsouth4220" depart="155" />
    <vehicle id="4235e4221e_38" type="type1" route="r4235e4221e" depart="158" />
    <vehicle id="4221n4220s_39" type="type1" route="r4221n4220s" depart="163" />
    <vehicle id="4235e4221n_40" type="type1" route="r4235e4221n" depart="168" />
    <vehicle id="south4219_41" type="type1" route="rsouth4219" depart="173" />
    <vehicle id="north4221_42" type="type1" route="rnorth4221" depart="177" />
    <vehicle id="4221n4220n_43" type="type1" route="r4221n4220n" depart="177" />
    <vehicle id="north4219_44" type="type1" route="rnorth4219" depart="178" />
    <vehicle id="4235e4219n_45" type="type1" route="r4235e4219n" depart="192" />
    <vehicle id="south4220_46" type="type1" route="rsouth4220" depart="195" />
    <vehicle id="4235e4221e_47" type="type1" route="r4235e4221e" depart="201" />
    <vehicle id="north4219_48" type="type1" route="rnorth4219" depart="204" />
    <vehicle id="se4221_49" type="type1" route="rse4221" depart="206" />
    <vehicle id="4219s4221e_50" type="type1" route="r4219s4221e" depart="207" />
    <vehicle id="south4219_51" type="type1" route="rsouth4219" depart="213" />
    <vehicle id="4220s4235w_52" type="type1" route="r4220s4235w" depart="214" />
    <vehicle id="nw4235_53" type="type1" route="rnw4235" depart="216" />
    <vehicle id="4235e4221e_54" type="type1" route="r4235e4221e" depart="218" />
    <vehicle id="4235e4219n_55" type="type1" route="r4235e4219n" depart="219" />
    <vehicle id="north4221_56" type="type1" route="rnorth4221" depart="222" />
    <vehicle id="north4221_57" type="type1" route="rnorth4221" depart="235" />
    <vehicle id="south4219_58" type="type1" route="rsouth4219" depart="248" />
    <vehicle id="north4219_59" type="type1" route="rnorth4219" depart="249" />
    <vehicle id="se4235_60" type="type1" route="rse4235" depart="254" />
    <vehicle id="4220s4219n_61" type="type1" route="r4220s4219n" depart="262" />
    <vehicle id="4235e4219s_62" type="type1" route="r4235e4219s" depart="274" />
    <vehicle id="4235e4219n_63" type="type1" route="r4235e4219n" depart="277" />
    <vehicle id="4235e4219s_64" type="type1" route="r4235e4219s" depart="287" />
    <vehicle id="nw4235_65" type="type1" route="rnw4235" depart="289" />
    <vehicle id="north4221_66" type="type1" route="rnorth4221" depart="289" />
    <vehicle id="4235e4219n_67" type="type1" route="r4235e4219n" depart="290" />
    <vehicle id="4235e4219n_68" type="type1" route="r4235e4219n" depart="291" />
    <vehicle id="4235e4219n_69" type="type1" route="r4235e4219n" depart="293" />
    <vehicle id="south4219_70" type="type1" route="rsouth4219" depart="295" />
    <vehicle id="south4219_71" type="type1" route="rsouth4219" depart="296" />
    <vehicle id="south4220_72" type="type1" route="rsouth4220" depart="307" />
    <vehicle id="south4219_73" type="type1" route="rsouth4219" depart="309" />
    <vehicle id="4220s4219n_74" type="type1" route="r4220s4219n" depart="309" />
    <vehicle id="north4221_75" type="type1" route="rnorth4221" depart="310" />
    <vehicle id="north4221_76" type="type1" route="rnorth4221" depart="311" />
    <vehicle id="4219n4221n_77" type="type1" route="r4219n4221n" depart="314" />
    <vehicle id="4221n4235w_78" type="type1" route="r4221n4235w" depart="314" />
    <vehicle id="4235e4219n_79" type="type1" route="r4235e4219n" depart="321" />
    <vehicle id="4235e4221s_80" type="type1" route="r4235e4221s" depart="323" />
    <vehicle id="se4235_81" type="type1" route="rse4235" depart="331" />
    <vehicle id="4219s4220n_82" type="type1" route="r4219s4220n" depart="332" />
    <vehicle id="4235e4219s_83" type="type1" route="r4235e4219s" depart="333" />
    <vehicle id="north4219_84" type="type1" route="rnorth4219" depart="336" />
    <vehicle id="north4219_85" type="type1" route="rnorth4219" depart="344" />
    <vehicle id="north4219_86" type="type1" route="rnorth4219" depart="348" />
    <vehicle id="4219n4221e_87" type="type1" route="r4219n4221e" depart="348" />
    <vehicle id="north4221_88" type="type1" route="rnorth4221" depart="349" />
    <vehicle id="north4219_89" type="type1" route="rnorth4219" depart="354" />
    <vehicle id="south4221_90" type="type1" route="rsouth4221" depart="355" />
    <vehicle id="south4221_91" type="type1" route="rsouth4221" depart="358" />
    <vehicle id="4235e4220s_92" type="type1" route="r4235e4220s" depart="361" />
    <vehicle id="4220n4235w_93" type="type1" route="r4220n4235w" depart="368" />
    <vehicle id="4235e4219n_94" type="type1" route="r4235e4219n" depart="370" />
    <vehicle id="4235e4219n_95" type="type1" route="r4235e4219n" depart="378" />
    <vehicle id="4235e4219n_96" type="type1" route="r4235e4219n" depart="387" />
    <vehicle id="4235e4219n_97" type="type1" route="r4235e4219n" depart="398" />
    <vehicle id="4235e4219n_98" type="type1" route="r4235e4219n" depart="400" />
    <vehicle id="4221n4235w_99" type="type1" route="r4221n4235w" depart="403" />
    <vehicle id="se4235_100" type="type1" route="rse4235" depart="404" />
    <vehicle id="4235e4219n_101" type="type1" route="r4235e4219n" depart="404" />
    <vehicle id="south4220_102" type="type1" route="rsouth4220" depart="416" />
    <vehicle id="4235e4221n_103" type="type1" route="r4235e4221n" depart="417" />
    <vehicle id="4235e4219n_104" type="type1" route="r4235e4219n" depart="424" />
    <vehicle id="south4219_105" type="type1" route="rsouth4219" depart="432" />
    <vehicle id="north4219_106" type="type1" route="rnorth4219" depart="434" />
    <vehicle id="4219s4220n_107" type="type1" route="r4219s4220n" depart="441" />
    <vehicle id="4235e4219n_108" type="type1" route="r4235e4219n" depart="442" />
    <vehicle id="4219s4221s_109" type="type1" route="r4219s4221s" depart="444" />
    <vehicle id="north4219_110" type="type1" route="rnorth4219" depart="445" />
    <vehicle id="north4221_111" type="type1" route="rnorth4221" depart="452" />
    <vehicle id="north4219_112" type="type1" route="rnorth4219" depart="453" />
    <vehicle id="south4220_113" type="type1" route="rsouth4220" depart="455" />
    <vehicle id="north4219_114" type="type1" route="rnorth4219" depart="462" />
    <vehicle id="4235e4221e_115" type="type1" route="r4235e4221e" depart="463" />
    <vehicle id="4235e4219n_116" type="type1" route="r4235e4219n" depart="482" />
    <vehicle id="4235e4219n_117" type="type1" route="r4235e4219n" depart="489" />
    <vehicle id="4221n4219n_118" type="type1" route="r4221n4219n" depart="489" />
    <vehicle id="4220n4235w_119" type="type1" route="r4220n4235w" depart="491" />
    <vehicle id="north4219_120" type="type1" route="rnorth4219" depart="496" />
    <vehicle id="4235e4219n_121" type="type1" route="r4235e4219n" depart="501" />
    <vehicle id="4235e4219n_122" type="type1" route="r4235e4219n" depart="503" />
    <vehicle id="south4219_123" type="type1" route="rsouth4219" depart="504" />
    <vehicle id="4221n4219n_124" type="type1" route="r4221n4219n" depart="507" />
    <vehicle id="north4219_125" type="type1" route="rnorth4219" depart="511" />
    <vehicle id="4235e4219n_126" type="type1" route="r4235e4219n" depart="518" />
    <vehicle id="4221s4235w_127" type="type1" route="r4221s4235w" depart="520" />
    <vehicle id="4219n4220n_128" type="type1" route="r4219n4220n" depart="521" />
    <vehicle id="north4219_129" type="type1" route="rnorth4219" depart="522" />
    <vehicle id="4235e4219n_130" type="type1" route="r4235e4219n" depart="522" />
    <vehicle id="4235e4220n_131" type="type1" route="r4235e4220n" depart="536" />
    <vehicle id="4235e4219n_132" type="type1" route="r4235e4219n" depart="540" />
    <vehicle id="north4219_133" type="type1" route="rnorth4219" depart="541" />
    <vehicle id="4235e4219n_134" type="type1" route="r4235e4219n" depart="549" />
    <vehicle id="4220s4235w_135" type="type1" route="r4220s4235w" depart="562" />
    <vehicle id="north4219_136" type="type1" route="rnorth4219" depart="572" />
    <vehicle id="north4219_137" type="type1" route="rnorth4219" depart="584" />
    <vehicle id="south4219_138" type="type1" route="rsouth4219" depart="586" />
    <vehicle id="4235e4219n_139" type="type1" route="r4235e4219n" depart="588" />
    <vehicle id="se4235_140" type="type1" route="rse4235" depart="590" />
    <vehicle id="4235e4221e_141" type="type1" route="r4235e4221e" depart="597" />
</routes>
