<routes>
        <vType id="type1" lcStrategic="100" lcKeepRight="100" lcSpeedGain="100" lcCooperative="1" lcSublane="100" />
    <route id="rse4235" edges="619523290#0 619523290#1 619523288 61645695 628341438#0 628341438#1" />
    <route id="rnw4235" edges="-628341438#1 -628341438#0 gneE6 619523287#0.17 619523287#1" />
    <route id="rnorth4219" edges="620377515  122089525 122089525.34 620377496 620377502#0 620377502#1 620377501#0" />
    <route id="rsouth4219" edges="620377506 620377506.61 28597169 620377494 547625725" />
    <route id="rsouth4220" edges="gneE10.441 gneE73 gneE79 gneE41" />
    <route id="rnorth4221" edges="-620463733 -620377511 -112543664 28573008 547793367 620377512 28573048 669665014 669665015#1 28594060#0 28594060#1 28594060#2 28594060#3 28594060#4" />
    <route id="rsouth4221" edges="-28594060#4 -28594060#3 -28594060#2 -28594060#1 -28594060#0 669665013 669665011 7635630#0 7635630#1 207149704#0 207149704#1 112543664 620377510 620463733" />
    <route id="rne4221" edges="-620463733 -620377511 -112543664 28573008 547793367 620377512 7637388#0 7637388#1 28573015#0 28573015#1 28573015#2 28573015#3 28573015#4 28573015#5 28573015#6" />
    <route id="rse4221" edges="-28594060#4 -28594060#3 -28594060#2 -28594060#1 -28594060#0 669665013 669665011 7635630#0 28572986 7637388#1 28573015#0 28573015#1 28573015#2 28573015#3 28573015#4 28573015#5 28573015#6" />
    <route id="rnw4221" edges="-28573015#6 -28573015#5 -28573015#4 -28573015#3 -28573015#2 -28573015#1 -28573015#0 28573025 28573025.46 28573025.65 28573048 669665014 669665015#1 28594060#0 28594060#1 28594060#2 28594060#3 28594060#4" />
    <route id="r4235e4219n" edges="619523290#0 619523290#1 619523288 619526570#0 619526570#1 620377514#1 619526569#1 619526568 619526567 gneE1 gneE1.31 620377502#0 620377502#1 620377501#0" />
    <route id="r4235n4219n" edges="-628341438#1 -628341438#0 -61645695 619526570#0 619526570#1 620377514#1 619526569#1 619526568 619526567 gneE1 gneE1.31 620377502#0 620377502#1 620377501#0" />
    <route id="r4235e4219s" edges="619523290#0 619523290#1 619523288 619526570#0 619526570#1 620377514#1 619526569#1 619526568 619526567 619526566 28597169 620377494 547625725" />
    <route id="r4235n4219s" edges="-628341438#1 -628341438#0 -61645695 619526570#0 619526570#1 620377514#1 619526569#1 619526568 619526567 619526566 28597169 620377494 547625725" />
    <route id="r4235e4220n" edges="619523290#0 619523290#1 619523288 619526570#0 619526570#1 620377514#1 619526569#1 619526568 619526567 619526566 122089528#1 620377517 gneE3 gneE44" />
    <route id="r4235n4220n" edges="-628341438#1 -628341438#0 -61645695 619526570#0 619526570#1 620377514#1 619526569#1 619526568 619526567 619526566 122089528#1 620377517 gneE3 gneE44" />
    <route id="r4235e4220s" edges="619523290#0 619523290#1 619523288 619526570#0 619526570#1 620377514#1 619526569#1 619526568 619526567 619526566 122089528#1 620377517 gneE74 gneE79 gneE41" />
    <route id="r4235n4220s" edges="-628341438#1 -628341438#0 -61645695 619526570#0 619526570#1 620377514#1 619526569#1 619526568 619526567 619526566 122089528#1 620377517 gneE74 gneE79 gneE41" />
    <route id="r4219s4220n" edges="620377506 gneE2 620377517 gneE3 gneE44" />
    <route id="r4219s4220s" edges="620377506 gneE2 620377517 gneE74 gneE79 gneE41" />
    <route id="r4219n4220n" edges="620377515  122089525 122089525.34 122089528#1 620377517 gneE3 gneE44" />
    <route id="r4219n4220s" edges="620377515  122089525 122089525.34 122089528#1 620377517 gneE74 gneE79 gneE41" />
    <route id="r4235e4221n" edges="619523290#0 619523290#1 619523288 619526570#0 619526570#1 620377514#1 619526569#1 619526568 619526567 619526566 122089528#1 620377517 gneE74 gneE72 gneE80 gneE81 gneE83 669665014 669665015#1 28594060#0 28594060#1 28594060#2 28594060#3 28594060#4" />
    <route id="r4235n4221n" edges="-628341438#1 -628341438#0 -61645695 619526570#0 619526570#1 620377514#1 619526569#1 619526568 619526567 619526566 122089528#1 620377517 gneE74 gneE72 gneE80 gneE81 gneE83 669665014 669665015#1 28594060#0 28594060#1 28594060#2 28594060#3 28594060#4" />
    <route id="r4235e4221s" edges="619523290#0 619523290#1 619523288 619526570#0 619526570#1 620377514#1 619526569#1 619526568 619526567 619526566 122089528#1 620377517 gneE74 gneE72 gneE80 gneE81 gneE82 207149704#0 207149704#1 112543664 620377510 620463733" />
    <route id="r4235n4221s" edges="-628341438#1 -628341438#0 -61645695 619526570#0 619526570#1 620377514#1 619526569#1 619526568 619526567 619526566 122089528#1 620377517 gneE74 gneE72 gneE80 gneE81 gneE82 207149704#0 207149704#1 112543664 620377510 620463733" />
    <route id="r4219s4221n" edges="620377506 gneE2 620377517 gneE74 gneE72 gneE80 gneE81 gneE83 669665014 669665015#1 28594060#0 28594060#1 28594060#2 28594060#3 28594060#4" />
    <route id="r4219s4221s" edges="620377506 gneE2 620377517 gneE74 gneE72 gneE80 gneE81 gneE82 207149704#0 207149704#1 112543664 620377510 620463733" />
    <route id="r4219n4221n" edges="620377515  122089525 122089525.34 122089528#1 620377517 gneE74 gneE72 gneE80 gneE81 gneE83 669665014 669665015#1 28594060#0 28594060#1 28594060#2 28594060#3 28594060#4" />
    <route id="r4219n4221s" edges="620377515  122089525 122089525.34 122089528#1 620377517 gneE74 gneE72 gneE80 gneE81 gneE82 207149704#0 207149704#1 112543664 620377510 620463733" />
    <route id="r4220s4221n" edges="gneE10.441 28641508 gneE80 gneE81 gneE83 669665014 669665015#1 28594060#0 28594060#1 28594060#2 28594060#3 28594060#4" />
    <route id="r4220s4221s" edges="gneE10.441 28641508 gneE80 gneE81 gneE82 207149704#0 207149704#1 112543664 620377510 620463733" />
    <route id="r4235e4221e" edges="619523290#0 619523290#1 619523288 619526570#0 619526570#1 620377514#1 619526569#1 619526568 619526567 619526566 122089528#1 620377517 gneE74 gneE72 gneE80 gneE81 gneE82 7637388#0 7637388#1 28573015#0 28573015#1 28573015#2 28573015#3 28573015#4 28573015#5 28573015#6" />
    <route id="r4235n4221e" edges="-628341438#1 -628341438#0 -61645695 619526570#0 619526570#1 620377514#1 619526569#1 619526568 619526567 619526566 122089528#1 620377517 gneE74 gneE72 gneE80 gneE81 gneE82 7637388#0 7637388#1 28573015#0 28573015#1 28573015#2 28573015#3 28573015#4 28573015#5 28573015#6" />
    <route id="r4219s4221e" edges="620377506 gneE2 620377517  gneE74 gneE72 gneE80 gneE81 gneE82 7637388#0 7637388#1 28573015#0 28573015#1 28573015#2 28573015#3 28573015#4 28573015#5 28573015#6" />
    <route id="r4219n4221e" edges="620377515  122089525 122089525.34 122089528#1 620377517 gneE74 gneE72 gneE80 gneE81 gneE82 7637388#0 7637388#1 28573015#0 28573015#1 28573015#2 28573015#3 28573015#4 28573015#5 28573015#6" />
    <route id="r4220s4221e" edges="gneE10.441 28641508 gneE80 gneE81 gneE82 7637388#0 7637388#1 28573015#0 28573015#1 28573015#2 28573015#3 28573015#4 28573015#5 28573015#6" />
    <route id="r4221s4220n" edges="-28594060#4 -28594060#3 -28594060#2 -28594060#1 -28594060#0 669665013 669665011 7635630#0 7635630#1 624439627 547793365 158617319 gneE77 gneE76 gneE44" />
    <route id="r4221n4220n" edges="-620463733 -620377511 -112543664 28573008 28573013 547793365 158617319 gneE77 gneE76 gneE44" />
    <route id="r4221w4220n" edges="-28573015#6 -28573015#5 -28573015#4 -28573015#3 -28573015#2 -28573015#1 -28573015#0 28573025 28573025.46 28573025.65 624439627 547793365 158617319 gneE77 gneE76 gneE44" />
    <route id="r4221s4220s" edges="-28594060#4 -28594060#3 -28594060#2 -28594060#1 -28594060#0 669665013 669665011 7635630#0 7635630#1 624439627 547793365 158617319 620377513 gneE41" />
    <route id="r4221n4220s" edges="-620463733 -620377511 -112543664 28573008 28573013 547793365 158617319 620377513 gneE41" />
    <route id="r4221w4220s" edges="-28573015#6 -28573015#5 -28573015#4 -28573015#3 -28573015#2 -28573015#1 -28573015#0 28573025 28573025.46 28573025.65 624439627 547793365 158617319 620377513 gneE41" />
    <route id="r4220s4219n" edges="gneE10.441 gneE73 gneE75 619526565 547625727 620377496 620377502#0 620377502#1 620377501#0" />
    <route id="r4220n4219n" edges="gneE47 gneE47.434 gneE78 gneE75 619526565 547625727 620377496 620377502#0 620377502#1 620377501#0" />
    <route id="r4221s4219n" edges="-28594060#4 -28594060#3 -28594060#2 -28594060#1 -28594060#0 669665013 669665011 7635630#0 7635630#1 624439627 547793365 158617319 gneE77 gneE75 619526565 547625727 620377496 620377502#0 620377502#1 620377501#0" />
    <route id="r4221n4219n" edges="-620463733 -620377511 -112543664 28573008 28573013 547793365 158617319 gneE77 gneE75 619526565 547625727 620377496 620377502#0 620377502#1 620377501#0" />
    <route id="r4221w4219n" edges="-28573015#6 -28573015#5 -28573015#4 -28573015#3 -28573015#2 -28573015#1 -28573015#0 28573025 28573025.46 28573025.65 624439627 547793365 158617319 gneE77 gneE75 619526565 547625727 620377496 620377502#0 620377502#1 620377501#0" />
    <route id="r4220s4219s" edges="gneE10.441 gneE73 gneE75 619526565 28592678 620377494 547625725" />
    <route id="r4220n4219s" edges="gneE47 gneE47.434 gneE78 gneE75 619526565 28592678 620377494 547625725" />
    <route id="r4221s4219s" edges="-28594060#4 -28594060#3 -28594060#2 -28594060#1 -28594060#0 669665013 669665011 7635630#0 7635630#1 624439627 547793365 158617319 gneE77 gneE75 619526565 28592678 620377494 547625725" />
    <route id="r4221n4219s" edges="-620463733 -620377511 -112543664 28573008 28573013 547793365 158617319 gneE77 gneE75 619526565 28592678 620377494 547625725" />
    <route id="r4221w4219s" edges="-28573015#6 -28573015#5 -28573015#4 -28573015#3 -28573015#2 -28573015#1 -28573015#0 28573025 28573025.46 28573025.65 624439627 547793365 158617319 gneE77 gneE75 619526565 28592678 620377494 547625725" />
    <route id="r4219s4235s" edges="620377506 620377506.61 122089526 122089583#0 122089583#1 122089583#1-AddedOffRampEdge 620377490 628341438#0 628341438#1" />
    <route id="r4219n4235s" edges="620377515 28592666 122089583#0 122089583#1 122089583#1-AddedOffRampEdge 620377490 628341438#0 628341438#1" />
    <route id="r4221s4235s" edges="-28594060#4 -28594060#3 -28594060#2 -28594060#1 -28594060#0 669665013 669665011 7635630#0 7635630#1 624439627 547793365 158617319 gneE77 gneE75 619526565 547625727 122089526 122089583#0 122089583#1 122089583#1-AddedOffRampEdge 620377490 628341438#0 628341438#1" />
    <route id="r4221n4235s" edges="-620463733 -620377511 -112543664 28573008 28573013 547793365 158617319 gneE77 gneE75 619526565 547625727 122089526 122089583#0 122089583#1 122089583#1-AddedOffRampEdge 620377490 628341438#0 628341438#1" />
    <route id="r4221w4235s" edges="-28573015#6 -28573015#5 -28573015#4 -28573015#3 -28573015#2 -28573015#1 -28573015#0 28573025 28573025.46 28573025.65 624439627 547793365 158617319 gneE77 gneE75 619526565 547625727 122089526 122089583#0 122089583#1 122089583#1-AddedOffRampEdge 620377490 628341438#0 628341438#1" />
    <route id="r4220s4235s" edges="gneE10.441 gneE73 gneE75 619526565 547625727 122089526 122089583#0 122089583#1 122089583#1-AddedOffRampEdge 620377490 628341438#0 628341438#1" />
    <route id="r4220n4235s" edges="gneE47 gneE47.434 gneE78 gneE75 619526565 547625727 122089526 122089583#0 122089583#1 122089583#1-AddedOffRampEdge 620377490 628341438#0 628341438#1" />
    <route id="r4219s4235w" edges="620377506 620377506.61 122089526 122089583#0 122089583#1 122089583#1-AddedOffRampEdge 619523286 619523287#0 619523287#0.17 619523287#1" />
    <route id="r4219n4235w" edges="620377515 28592666 122089583#0 122089583#1 122089583#1-AddedOffRampEdge 619523286 619523287#0 619523287#0.17 619523287#1" />
    <route id="r4221s4235w" edges="-28594060#4 -28594060#3 -28594060#2 -28594060#1 -28594060#0 669665013 669665011 7635630#0 7635630#1 624439627 547793365 158617319 gneE77 gneE75 619526565 547625727 122089526 122089583#0 122089583#1 122089583#1-AddedOffRampEdge 619523286 619523287#0 619523287#0.17 619523287#1" />
    <route id="r4221n4235w" edges="-620463733 -620377511 -112543664 28573008 28573013 547793365 158617319 gneE77 gneE75 619526565 547625727 122089526 122089583#0 122089583#1 122089583#1-AddedOffRampEdge 619523286 619523287#0 619523287#0.17 619523287#1" />
    <route id="r4221w4235w" edges="-28573015#6 -28573015#5 -28573015#4 -28573015#3 -28573015#2 -28573015#1 -28573015#0 28573025 28573025.46 28573025.65 624439627 547793365 158617319 gneE77 gneE75 619526565 547625727 122089526 122089583#0 122089583#1 122089583#1-AddedOffRampEdge 619523286 619523287#0 619523287#0.17 619523287#1" />
    <route id="r4220s4235w" edges="gneE10.441 gneE73 gneE75 619526565 547625727 122089526 122089583#0 122089583#1 122089583#1-AddedOffRampEdge 619523286 619523287#0 619523287#0.17 619523287#1" />
    <route id="r4220n4235w" edges="gneE47 gneE47.434 gneE78 gneE75 619526565 547625727 122089526 122089583#0 122089583#1 122089583#1-AddedOffRampEdge 619523286 619523287#0 619523287#0.17 619523287#1" />
    <vehicle id="se4235_0" type="type1" route="rse4235" depart="0" />
    <vehicle id="north4219_1" type="type1" route="rnorth4219" depart="0" />
    <vehicle id="south4219_2" type="type1" route="rsouth4219" depart="1" />
    <vehicle id="south4221_3" type="type1" route="rsouth4221" depart="1" />
    <vehicle id="ne4221_4" type="type1" route="rne4221" depart="1" />
    <vehicle id="4235e4219n_5" type="type1" route="r4235e4219n" depart="1" />
    <vehicle id="4221s4235w_6" type="type1" route="r4221s4235w" depart="1" />
    <vehicle id="nw4235_7" type="type1" route="rnw4235" depart="2" />
    <vehicle id="north4221_8" type="type1" route="rnorth4221" depart="2" />
    <vehicle id="4235e4219n_9" type="type1" route="r4235e4219n" depart="2" />
    <vehicle id="south4221_10" type="type1" route="rsouth4221" depart="3" />
    <vehicle id="4235e4219n_11" type="type1" route="r4235e4219n" depart="3" />
    <vehicle id="nw4235_12" type="type1" route="rnw4235" depart="4" />
    <vehicle id="north4219_13" type="type1" route="rnorth4219" depart="4" />
    <vehicle id="south4220_14" type="type1" route="rsouth4220" depart="4" />
    <vehicle id="4235e4219n_15" type="type1" route="r4235e4219n" depart="4" />
    <vehicle id="4219s4221n_16" type="type1" route="r4219s4221n" depart="4" />
    <vehicle id="4235e4221e_17" type="type1" route="r4235e4221e" depart="4" />
    <vehicle id="4220s4219n_18" type="type1" route="r4220s4219n" depart="4" />
    <vehicle id="4221w4219n_19" type="type1" route="r4221w4219n" depart="4" />
    <vehicle id="nw4235_20" type="type1" route="rnw4235" depart="5" />
    <vehicle id="4235e4219n_21" type="type1" route="r4235e4219n" depart="5" />
    <vehicle id="4221n4219n_22" type="type1" route="r4221n4219n" depart="5" />
    <vehicle id="4221s4235w_23" type="type1" route="r4221s4235w" depart="5" />
    <vehicle id="south4221_24" type="type1" route="rsouth4221" depart="6" />
    <vehicle id="4235e4219s_25" type="type1" route="r4235e4219s" depart="6" />
    <vehicle id="4220n4219n_26" type="type1" route="r4220n4219n" depart="6" />
    <vehicle id="south4219_27" type="type1" route="rsouth4219" depart="7" />
    <vehicle id="north4221_28" type="type1" route="rnorth4221" depart="7" />
    <vehicle id="south4221_29" type="type1" route="rsouth4221" depart="7" />
    <vehicle id="4219s4235w_30" type="type1" route="r4219s4235w" depart="7" />
    <vehicle id="4235e4219n_31" type="type1" route="r4235e4219n" depart="8" />
    <vehicle id="4235e4221e_32" type="type1" route="r4235e4221e" depart="8" />
    <vehicle id="north4219_33" type="type1" route="rnorth4219" depart="9" />
    <vehicle id="4235e4219n_34" type="type1" route="r4235e4219n" depart="9" />
    <vehicle id="4235e4219s_35" type="type1" route="r4235e4219s" depart="9" />
    <vehicle id="4220s4219n_36" type="type1" route="r4220s4219n" depart="9" />
    <vehicle id="4220n4219n_37" type="type1" route="r4220n4219n" depart="9" />
    <vehicle id="south4221_38" type="type1" route="rsouth4221" depart="10" />
    <vehicle id="4235e4221n_39" type="type1" route="r4235e4221n" depart="10" />
    <vehicle id="4219s4221e_40" type="type1" route="r4219s4221e" depart="10" />
    <vehicle id="4221w4220n_41" type="type1" route="r4221w4220n" depart="10" />
    <vehicle id="4219s4235w_42" type="type1" route="r4219s4235w" depart="10" />
    <vehicle id="4219n4235w_43" type="type1" route="r4219n4235w" depart="10" />
    <vehicle id="se4235_44" type="type1" route="rse4235" depart="12" />
    <vehicle id="4235e4219s_45" type="type1" route="r4235e4219s" depart="12" />
    <vehicle id="nw4235_46" type="type1" route="rnw4235" depart="13" />
    <vehicle id="north4219_47" type="type1" route="rnorth4219" depart="13" />
    <vehicle id="4235e4221e_48" type="type1" route="r4235e4221e" depart="13" />
    <vehicle id="se4235_49" type="type1" route="rse4235" depart="14" />
    <vehicle id="4235e4221n_50" type="type1" route="r4235e4221n" depart="14" />
    <vehicle id="4221n4219n_51" type="type1" route="r4221n4219n" depart="14" />
    <vehicle id="nw4235_52" type="type1" route="rnw4235" depart="15" />
    <vehicle id="north4221_53" type="type1" route="rnorth4221" depart="15" />
    <vehicle id="south4220_54" type="type1" route="rsouth4220" depart="16" />
    <vehicle id="north4221_55" type="type1" route="rnorth4221" depart="16" />
    <vehicle id="south4219_56" type="type1" route="rsouth4219" depart="17" />
    <vehicle id="ne4221_57" type="type1" route="rne4221" depart="17" />
    <vehicle id="4235e4219n_58" type="type1" route="r4235e4219n" depart="18" />
    <vehicle id="4235e4219s_59" type="type1" route="r4235e4219s" depart="19" />
    <vehicle id="4219s4235w_60" type="type1" route="r4219s4235w" depart="19" />
    <vehicle id="4235e4220n_61" type="type1" route="r4235e4220n" depart="20" />
    <vehicle id="4220n4219s_62" type="type1" route="r4220n4219s" depart="20" />
    <vehicle id="north4221_63" type="type1" route="rnorth4221" depart="21" />
    <vehicle id="4235e4219n_64" type="type1" route="r4235e4219n" depart="21" />
    <vehicle id="4221n4235w_65" type="type1" route="r4221n4235w" depart="21" />
    <vehicle id="nw4235_66" type="type1" route="rnw4235" depart="22" />
    <vehicle id="north4221_67" type="type1" route="rnorth4221" depart="22" />
    <vehicle id="north4221_68" type="type1" route="rnorth4221" depart="23" />
    <vehicle id="4221w4219n_69" type="type1" route="r4221w4219n" depart="23" />
    <vehicle id="south4219_70" type="type1" route="rsouth4219" depart="24" />
    <vehicle id="4220s4235w_71" type="type1" route="r4220s4235w" depart="24" />
    <vehicle id="4235n4219n_72" type="type1" route="r4235n4219n" depart="25" />
    <vehicle id="south4220_73" type="type1" route="rsouth4220" depart="26" />
    <vehicle id="north4221_74" type="type1" route="rnorth4221" depart="26" />
    <vehicle id="4235e4219n_75" type="type1" route="r4235e4219n" depart="26" />
    <vehicle id="4220s4235w_76" type="type1" route="r4220s4235w" depart="26" />
    <vehicle id="se4235_77" type="type1" route="rse4235" depart="28" />
    <vehicle id="nw4235_78" type="type1" route="rnw4235" depart="29" />
    <vehicle id="4220s4219s_79" type="type1" route="r4220s4219s" depart="29" />
    <vehicle id="4235e4221e_80" type="type1" route="r4235e4221e" depart="31" />
    <vehicle id="4220s4219n_81" type="type1" route="r4220s4219n" depart="31" />
    <vehicle id="4235e4219s_82" type="type1" route="r4235e4219s" depart="32" />
    <vehicle id="4235e4221n_83" type="type1" route="r4235e4221n" depart="32" />
    <vehicle id="4221n4235w_84" type="type1" route="r4221n4235w" depart="32" />
    <vehicle id="south4219_85" type="type1" route="rsouth4219" depart="33" />
    <vehicle id="4235e4219n_86" type="type1" route="r4235e4219n" depart="33" />
    <vehicle id="se4235_87" type="type1" route="rse4235" depart="34" />
    <vehicle id="4235e4219n_88" type="type1" route="r4235e4219n" depart="34" />
    <vehicle id="4235e4221n_89" type="type1" route="r4235e4221n" depart="34" />
    <vehicle id="north4221_90" type="type1" route="rnorth4221" depart="35" />
    <vehicle id="4220s4219n_91" type="type1" route="r4220s4219n" depart="35" />
    <vehicle id="north4219_92" type="type1" route="rnorth4219" depart="36" />
    <vehicle id="north4221_93" type="type1" route="rnorth4221" depart="36" />
    <vehicle id="4219s4235w_94" type="type1" route="r4219s4235w" depart="36" />
    <vehicle id="se4235_95" type="type1" route="rse4235" depart="37" />
    <vehicle id="north4219_96" type="type1" route="rnorth4219" depart="37" />
    <vehicle id="south4219_97" type="type1" route="rsouth4219" depart="37" />
    <vehicle id="4235e4219n_98" type="type1" route="r4235e4219n" depart="37" />
    <vehicle id="north4221_99" type="type1" route="rnorth4221" depart="38" />
    <vehicle id="4235e4219n_100" type="type1" route="r4235e4219n" depart="38" />
    <vehicle id="north4219_101" type="type1" route="rnorth4219" depart="39" />
    <vehicle id="north4221_102" type="type1" route="rnorth4221" depart="39" />
    <vehicle id="4221s4220s_103" type="type1" route="r4221s4220s" depart="39" />
    <vehicle id="north4221_104" type="type1" route="rnorth4221" depart="40" />
    <vehicle id="4235e4219n_105" type="type1" route="r4235e4219n" depart="40" />
    <vehicle id="4235e4221n_106" type="type1" route="r4235e4221n" depart="40" />
    <vehicle id="south4220_107" type="type1" route="rsouth4220" depart="41" />
    <vehicle id="4235e4219n_108" type="type1" route="r4235e4219n" depart="41" />
    <vehicle id="4235n4219n_109" type="type1" route="r4235n4219n" depart="41" />
    <vehicle id="4221s4219n_110" type="type1" route="r4221s4219n" depart="41" />
    <vehicle id="4219s4235w_111" type="type1" route="r4219s4235w" depart="41" />
    <vehicle id="se4235_112" type="type1" route="rse4235" depart="42" />
    <vehicle id="north4219_113" type="type1" route="rnorth4219" depart="42" />
    <vehicle id="south4220_114" type="type1" route="rsouth4220" depart="42" />
    <vehicle id="north4221_115" type="type1" route="rnorth4221" depart="42" />
    <vehicle id="4235e4219s_116" type="type1" route="r4235e4219s" depart="42" />
    <vehicle id="4235e4221n_117" type="type1" route="r4235e4221n" depart="42" />
    <vehicle id="4235e4221e_118" type="type1" route="r4235e4221e" depart="42" />
    <vehicle id="south4220_119" type="type1" route="rsouth4220" depart="43" />
    <vehicle id="4235e4221e_120" type="type1" route="r4235e4221e" depart="43" />
    <vehicle id="4235e4219n_121" type="type1" route="r4235e4219n" depart="44" />
    <vehicle id="nw4235_122" type="type1" route="rnw4235" depart="45" />
    <vehicle id="south4220_123" type="type1" route="rsouth4220" depart="45" />
    <vehicle id="4235e4219n_124" type="type1" route="r4235e4219n" depart="45" />
    <vehicle id="4221w4220s_125" type="type1" route="r4221w4220s" depart="45" />
    <vehicle id="nw4235_126" type="type1" route="rnw4235" depart="46" />
    <vehicle id="south4219_127" type="type1" route="rsouth4219" depart="46" />
    <vehicle id="se4235_128" type="type1" route="rse4235" depart="48" />
    <vehicle id="north4221_129" type="type1" route="rnorth4221" depart="48" />
    <vehicle id="4221s4220s_130" type="type1" route="r4221s4220s" depart="48" />
    <vehicle id="north4219_131" type="type1" route="rnorth4219" depart="49" />
    <vehicle id="4235e4219n_132" type="type1" route="r4235e4219n" depart="50" />
    <vehicle id="4221w4220s_133" type="type1" route="r4221w4220s" depart="50" />
    <vehicle id="north4219_134" type="type1" route="rnorth4219" depart="51" />
    <vehicle id="south4220_135" type="type1" route="rsouth4220" depart="51" />
    <vehicle id="north4219_136" type="type1" route="rnorth4219" depart="52" />
    <vehicle id="south4221_137" type="type1" route="rsouth4221" depart="52" />
    <vehicle id="4235e4221e_138" type="type1" route="r4235e4221e" depart="52" />
    <vehicle id="se4235_139" type="type1" route="rse4235" depart="53" />
    <vehicle id="4235e4219n_140" type="type1" route="r4235e4219n" depart="53" />
    <vehicle id="north4219_141" type="type1" route="rnorth4219" depart="54" />
    <vehicle id="south4221_142" type="type1" route="rsouth4221" depart="54" />
    <vehicle id="4235e4219n_143" type="type1" route="r4235e4219n" depart="54" />
    <vehicle id="4235e4219s_144" type="type1" route="r4235e4219s" depart="54" />
    <vehicle id="south4220_145" type="type1" route="rsouth4220" depart="55" />
    <vehicle id="north4221_146" type="type1" route="rnorth4221" depart="55" />
    <vehicle id="north4221_147" type="type1" route="rnorth4221" depart="56" />
    <vehicle id="4235e4221n_148" type="type1" route="r4235e4221n" depart="56" />
    <vehicle id="4235e4219n_149" type="type1" route="r4235e4219n" depart="57" />
    <vehicle id="ne4221_150" type="type1" route="rne4221" depart="58" />
    <vehicle id="4235e4219s_151" type="type1" route="r4235e4219s" depart="58" />
    <vehicle id="south4220_152" type="type1" route="rsouth4220" depart="60" />
    <vehicle id="4235e4219s_153" type="type1" route="r4235e4219s" depart="60" />
    <vehicle id="4235e4221n_154" type="type1" route="r4235e4221n" depart="60" />
    <vehicle id="4221s4235w_155" type="type1" route="r4221s4235w" depart="60" />
    <vehicle id="4235n4219n_156" type="type1" route="r4235n4219n" depart="61" />
    <vehicle id="4235e4221n_157" type="type1" route="r4235e4221n" depart="61" />
    <vehicle id="north4219_158" type="type1" route="rnorth4219" depart="62" />
    <vehicle id="south4220_159" type="type1" route="rsouth4220" depart="62" />
    <vehicle id="north4221_160" type="type1" route="rnorth4221" depart="62" />
    <vehicle id="4235e4219n_161" type="type1" route="r4235e4219n" depart="62" />
    <vehicle id="4235n4219n_162" type="type1" route="r4235n4219n" depart="62" />
    <vehicle id="4235e4219s_163" type="type1" route="r4235e4219s" depart="62" />
    <vehicle id="south4221_164" type="type1" route="rsouth4221" depart="63" />
    <vehicle id="4235e4221e_165" type="type1" route="r4235e4221e" depart="63" />
    <vehicle id="north4219_166" type="type1" route="rnorth4219" depart="64" />
    <vehicle id="4235e4221s_167" type="type1" route="r4235e4221s" depart="64" />
    <vehicle id="4235e4221e_168" type="type1" route="r4235e4221e" depart="64" />
    <vehicle id="4221n4220s_169" type="type1" route="r4221n4220s" depart="64" />
    <vehicle id="4235e4220n_170" type="type1" route="r4235e4220n" depart="65" />
    <vehicle id="4219s4221e_171" type="type1" route="r4219s4221e" depart="65" />
    <vehicle id="north4221_172" type="type1" route="rnorth4221" depart="66" />
    <vehicle id="4235e4219n_173" type="type1" route="r4235e4219n" depart="66" />
    <vehicle id="4221n4235w_174" type="type1" route="r4221n4235w" depart="67" />
    <vehicle id="4221s4220s_175" type="type1" route="r4221s4220s" depart="68" />
    <vehicle id="se4235_176" type="type1" route="rse4235" depart="69" />
    <vehicle id="north4221_177" type="type1" route="rnorth4221" depart="69" />
    <vehicle id="4235e4219n_178" type="type1" route="r4235e4219n" depart="69" />
    <vehicle id="4219s4221e_179" type="type1" route="r4219s4221e" depart="69" />
    <vehicle id="4220s4219n_180" type="type1" route="r4220s4219n" depart="69" />
    <vehicle id="south4219_181" type="type1" route="rsouth4219" depart="71" />
    <vehicle id="north4221_182" type="type1" route="rnorth4221" depart="72" />
    <vehicle id="4235e4219n_183" type="type1" route="r4235e4219n" depart="72" />
    <vehicle id="nw4235_184" type="type1" route="rnw4235" depart="73" />
    <vehicle id="4235e4219n_185" type="type1" route="r4235e4219n" depart="73" />
    <vehicle id="4219n4235s_186" type="type1" route="r4219n4235s" depart="73" />
    <vehicle id="4219n4221n_187" type="type1" route="r4219n4221n" depart="74" />
    <vehicle id="4221n4220s_188" type="type1" route="r4221n4220s" depart="74" />
    <vehicle id="north4219_189" type="type1" route="rnorth4219" depart="75" />
    <vehicle id="4220s4235w_190" type="type1" route="r4220s4235w" depart="75" />
    <vehicle id="4235e4221n_191" type="type1" route="r4235e4221n" depart="76" />
    <vehicle id="north4219_192" type="type1" route="rnorth4219" depart="77" />
    <vehicle id="4235e4221e_193" type="type1" route="r4235e4221e" depart="77" />
    <vehicle id="north4219_194" type="type1" route="rnorth4219" depart="79" />
    <vehicle id="north4221_195" type="type1" route="rnorth4221" depart="79" />
    <vehicle id="4219s4221n_196" type="type1" route="r4219s4221n" depart="79" />
    <vehicle id="4235e4221e_197" type="type1" route="r4235e4221e" depart="79" />
    <vehicle id="nw4235_198" type="type1" route="rnw4235" depart="80" />
    <vehicle id="4219s4235w_199" type="type1" route="r4219s4235w" depart="81" />
    <vehicle id="4219s4220n_200" type="type1" route="r4219s4220n" depart="82" />
    <vehicle id="4219s4235w_201" type="type1" route="r4219s4235w" depart="82" />
    <vehicle id="north4219_202" type="type1" route="rnorth4219" depart="83" />
    <vehicle id="north4221_203" type="type1" route="rnorth4221" depart="83" />
    <vehicle id="4235e4219n_204" type="type1" route="r4235e4219n" depart="83" />
    <vehicle id="4235e4219s_205" type="type1" route="r4235e4219s" depart="83" />
    <vehicle id="4235e4219n_206" type="type1" route="r4235e4219n" depart="84" />
    <vehicle id="4235e4219s_207" type="type1" route="r4235e4219s" depart="84" />
    <vehicle id="4221n4219n_208" type="type1" route="r4221n4219n" depart="84" />
    <vehicle id="south4219_209" type="type1" route="rsouth4219" depart="85" />
    <vehicle id="south4221_210" type="type1" route="rsouth4221" depart="85" />
    <vehicle id="4235e4219n_211" type="type1" route="r4235e4219n" depart="85" />
    <vehicle id="4235e4221e_212" type="type1" route="r4235e4221e" depart="85" />
    <vehicle id="4220s4235w_213" type="type1" route="r4220s4235w" depart="85" />
    <vehicle id="south4221_214" type="type1" route="rsouth4221" depart="86" />
    <vehicle id="se4221_215" type="type1" route="rse4221" depart="86" />
    <vehicle id="4221s4219n_216" type="type1" route="r4221s4219n" depart="88" />