<?xml version="1.0" encoding="UTF-8"?>

<!-- generated on 04/02/20 17:38:54 by Eclipse SUMO duarouter Version 1.5.0
<configuration xmlns:xsi="http://www.w3.org/2001/XMLSchema-instance" xsi:noNamespaceSchemaLocation="http://sumo.dlr.de/xsd/duarouterConfiguration.xsd">

    <input>
        <net-file value="C:\Users\Elliot\Downloads\sumo-win64extra-1.5.0\sumo-1.5.0\tools\2020-04-02-17-38-47\osm.net.xml"/>
        <route-files value="C:\Users\Elliot\Downloads\sumo-win64extra-1.5.0\sumo-1.5.0\tools\2020-04-02-17-38-47\osm.passenger.trips.xml"/>
    </input>

    <output>
        <output-file value="C:\Users\Elliot\Downloads\sumo-win64extra-1.5.0\sumo-1.5.0\tools\2020-04-02-17-38-47\osm.passenger.trips.xml.tmp"/>
        <write-trips value="true"/>
    </output>

    <time>
        <begin value="0"/>
        <end value="3600.0"/>
    </time>

    <report>
        <no-warnings value="true"/>
        <ignore-errors value="true"/>
        <no-step-log value="true"/>
    </report>

</configuration>
-->

<routes xmlns:xsi="http://www.w3.org/2001/XMLSchema-instance" xsi:noNamespaceSchemaLocation="http://sumo.dlr.de/xsd/routes_file.xsd">
    <vType id="veh_passenger" vClass="passenger"/>
    <trip id="veh5" type="veh_passenger" depart="76.43" departLane="best" from="620377514#1" to="-28573015#0"/>
    <trip id="veh8" type="veh_passenger" depart="122.29" departLane="best" from="620377514#1" to="620377501"/>
    <trip id="veh10" type="veh_passenger" depart="152.87" departLane="best" from="28573048" to="619523286"/>
    <trip id="veh12" type="veh_passenger" depart="183.44" departLane="best" from="122089525" to="207149704#0"/>
    <trip id="veh15" type="veh_passenger" depart="229.30" departLane="best" from="28573026#2" to="122089526"/>
    <trip id="veh17" type="veh_passenger" depart="259.87" departLane="best" departSpeed="max" from="619526570" to="619526566"/>
    <trip id="veh24" type="veh_passenger" depart="366.88" departLane="best" departSpeed="max" from="619526570" to="28594060#0"/>
    <trip id="veh26" type="veh_passenger" depart="397.45" departLane="best" from="619526565" to="669665013"/>
    <trip id="veh30" type="veh_passenger" depart="458.60" departLane="best" from="620377512" to="28597169"/>
    <trip id="veh32" type="veh_passenger" depart="489.17" departLane="best" from="7637388#0" to="619523286"/>
    <trip id="veh39" type="veh_passenger" depart="596.17" departLane="best" departSpeed="max" from="620377506" to="619523286"/>
    <trip id="veh55" type="veh_passenger" depart="840.76" departLane="best" from="122089525" to="669665014"/>
    <trip id="veh59" type="veh_passenger" depart="901.90" departLane="best" from="624439645" to="122089583#1-AddedOffRampEdge"/>
    <trip id="veh61" type="veh_passenger" depart="932.48" departLane="best" from="122089528#1" to="7635630#0"/>
    <trip id="veh65" type="veh_passenger" depart="993.62" departLane="best" from="28595974#1" to="28597169"/>
    <trip id="veh67" type="veh_passenger" depart="1024.20" departLane="best" from="619526563" to="620377501"/>
    <trip id="veh73" type="veh_passenger" depart="1115.92" departLane="best" from="669665011" to="122089583#1"/>
    <trip id="veh76" type="veh_passenger" depart="1161.78" departLane="best" departSpeed="max" from="619526570" to="207149704#1"/>
    <trip id="veh77" type="veh_passenger" depart="1177.06" departLane="best" from="159605088" to="620377501"/>
    <trip id="veh84" type="veh_passenger" depart="1284.07" departLane="best" departSpeed="max" from="619526570" to="-28573015#0"/>
    <trip id="veh85" type="veh_passenger" depart="1299.35" departLane="best" from="620377515" to="207149704#1"/>
    <trip id="veh86" type="veh_passenger" depart="1314.64" departLane="best" departSpeed="max" from="619526570" to="7635630#1"/>
    <trip id="veh91" type="veh_passenger" depart="1391.07" departLane="best" departSpeed="max" from="620377506" to="619523286"/>
    <trip id="veh93" type="veh_passenger" depart="1421.65" departLane="best" from="-28595973#1" to="665260212"/>
    <trip id="veh94" type="veh_passenger" depart="1436.93" departLane="best" from="669665014" to="619523286"/>
    <trip id="veh96" type="veh_passenger" depart="1467.51" departLane="best" from="669665013" to="122089526"/>
    <trip id="veh100" type="veh_passenger" depart="1528.65" departLane="best" from="624439645" to="7637365#0"/>
    <trip id="veh103" type="veh_passenger" depart="1574.51" departLane="best" from="620377514#1" to="158617319"/>
    <trip id="veh106" type="veh_passenger" depart="1620.37" departLane="best" from="620377512" to="122089583#0"/>
    <trip id="veh110" type="veh_passenger" depart="1681.52" departLane="best" from="7637365#2" to="619523286"/>
    <trip id="veh113" type="veh_passenger" depart="1727.38" departLane="best" from="619526566" to="61645668#1"/>
    <trip id="veh118" type="veh_passenger" depart="1803.81" departLane="best" departSpeed="max" from="619526570" to="28573026#0"/>
    <trip id="veh124" type="veh_passenger" depart="1895.53" departLane="best" from="158617319" to="619523286"/>
    <trip id="veh126" type="veh_passenger" depart="1926.10" departLane="best" from="28594060#0" to="619526564#1"/>
    <trip id="veh127" type="veh_passenger" depart="1941.39" departLane="best" from="28595973#0" to="122089528#1"/>
    <trip id="veh129" type="veh_passenger" depart="1971.96" departLane="best" from="619526569#1" to="28573026#2"/>
    <trip id="veh130" type="veh_passenger" depart="1987.25" departLane="best" from="620377515" to="620377501"/>
    <trip id="veh131" type="veh_passenger" depart="2002.53" departLane="best" departSpeed="max" from="619526570" to="122089528#1"/>
    <trip id="veh136" type="veh_passenger" depart="2078.97" departLane="best" from="28641508" to="122089583#1"/>
    <trip id="veh143" type="veh_passenger" depart="2185.97" departLane="best" from="620377517" to="619523286"/>
    <trip id="veh144" type="veh_passenger" depart="2201.26" departLane="best" from="669665013" to="620377501"/>
    <trip id="veh146" type="veh_passenger" depart="2231.83" departLane="best" departSpeed="max" from="620377506" to="619523286"/>
    <trip id="veh147" type="veh_passenger" depart="2247.12" departLane="best" from="619526568" to="158617319"/>
    <trip id="veh153" type="veh_passenger" depart="2338.84" departLane="best" from="624439627" to="620377502#0"/>
    <trip id="veh155" type="veh_passenger" depart="2369.41" departLane="best" from="28573015#3" to="620377501"/>
    <trip id="veh159" type="veh_passenger" depart="2430.56" departLane="best" from="28572986" to="620377492"/>
    <trip id="veh162" type="veh_passenger" depart="2476.42" departLane="best" from="28573178#1" to="619526563"/>
    <trip id="veh167" type="veh_passenger" depart="2552.85" departLane="best" departSpeed="max" from="620377506" to="620377517"/>
    <trip id="veh168" type="veh_passenger" depart="2568.14" departLane="best" from="122089528#1" to="-28595974#0"/>
    <trip id="veh171" type="veh_passenger" depart="2614.00" departLane="best" departSpeed="max" from="619526570" to="620377501"/>
    <trip id="veh186" type="veh_passenger" depart="2843.29" departLane="best" from="665260212" to="122089583#1"/>
    <trip id="veh196" type="veh_passenger" depart="2996.16" departLane="best" from="547793367" to="28597169"/>
    <trip id="veh197" type="veh_passenger" depart="3011.45" departLane="best" departSpeed="max" from="620377506" to="28573026#1"/>
    <trip id="veh199" type="veh_passenger" depart="3042.02" departLane="best" from="547793367" to="620377502#0"/>
    <trip id="veh201" type="veh_passenger" depart="3072.59" departLane="best" from="7637365#1" to="619523286"/>
    <trip id="veh204" type="veh_passenger" depart="3118.45" departLane="best" from="7637365#0" to="619523286"/>
    <trip id="veh209" type="veh_passenger" depart="3194.88" departLane="best" from="-28573219#3" to="-7637243"/>
    <trip id="veh211" type="veh_passenger" depart="3225.46" departLane="best" from="7637369#2" to="28573013"/>
    <trip id="veh216" type="veh_passenger" depart="3301.89" departLane="best" from="619526566" to="207149704#0"/>
    <trip id="veh217" type="veh_passenger" depart="3317.18" departLane="best" from="122089525" to="620377501"/>
    <trip id="veh219" type="veh_passenger" depart="3347.75" departLane="best" departSpeed="max" from="619526570" to="7635630#1"/>
    <trip id="veh220" type="veh_passenger" depart="3363.04" departLane="best" departSpeed="max" from="619526570" to="669665014"/>
    <trip id="veh222" type="veh_passenger" depart="3393.61" departLane="best" departSpeed="max" from="620377506" to="619526563"/>
    <trip id="veh225" type="veh_passenger" depart="3439.47" departLane="best" from="159605088" to="122089583#1-AddedOffRampEdge"/>
    <trip id="veh228" type="veh_passenger" depart="3485.33" departLane="best" departSpeed="max" from="619526570" to="158617319"/>
    <trip id="veh229" type="veh_passenger" depart="3500.61" departLane="best" from="-28573178#2" to="620377501"/>
    <trip id="veh233" type="veh_passenger" depart="3561.76" departLane="best" departSpeed="max" from="619526570" to="624439627"/>
    <trip id="veh234" type="veh_passenger" depart="3577.05" departLane="best" from="207149704#1" to="620377494"/>
</routes>
