<routes>

        <route id="se4235" edges="619523290#0 619523290#1 619523288 61645695 628341438#0 628341438#1" />
        <route id="nw4235" edges="-628341438#1 -628341438#0 gneE6 619523287#0.17 619523287#1" />
        <route id="north4219" edges="620377515 122089525.34 620377496 620377502#0 620377502#1 620377501#0" />
        <route id="south4219" edges="620377506 620377506.61 28597169 547625725" />
        <route id="south4220" edges="-28641509 28641521 624439643 66457665 665260214#0" />
        <route id="north4221" edges="-620463733 -620377511 -112543664 28573008 620377512 28573048 669665014 669665015#1 28594060#0 28594060#1 28594060#2 28594060#3 28594060#4" />
        <route id="south4221" edges="-28594060#4 -28594060#3 -28594060#2 -28594060#1 -28594060#0 669665013 669665011 7635630#0 7635630#1 207149704#0 207149704#1 112543664 620377510 620463733" />
        <route id="ne4221" edges="-620463733 -620377511 -112543664 28573008 620377512 7637388#0 7637388#1 28573015#0 28573015#1 28573015#2 28573015#3 28573015#4 28573015#5 28573015#6" />
        <route id="se4221" edges="-28594060#4 -28594060#3 -28594060#2 -28594060#1 -28594060#0 669665013 669665011 7635630#0 28572986 7637388#1 28573015#0 28573015#1 28573015#2 28573015#3 28573015#4 28573015#5 28573015#6" />
        <route id="nw4221" edges="-28573015#6 -28573015#5 -28573015#4 -28573015#3 -28573015#2 -28573015#1 -28573015#0 28573025 28573025.46 28573025.65 28573048 669665014 669665015#1 28594060#0 28594060#1 28594060#2 28594060#3 28594060#4" />
        
        <route id="4235e4219n" edges="619523290#0 619523290#1 619523288 619526570#0 619526570#1 620377514#1 619526569#1 619526568 619526567 gneE1 gneE1.31 620377502#0 620377502#1 620377501#0" />
        <route id="4235n4219n" edges="-628341438#1 -628341438#0 -61645695 619526570#0 619526570#1 620377514#1 619526569#1 619526568 619526567 gneE1 gneE1.31 620377502#0 620377502#1 620377501#0" />
        <route id="4235e4219s" edges="619523290#0 619523290#1 619523288 619526570#0 619526570#1 620377514#1 619526569#1 619526568 619526567 619526566 28597169 547625725" />
        <route id="4235n4219s" edges="-628341438#1 -628341438#0 -61645695 619526570#0 619526570#1 620377514#1 619526569#1 619526568 619526567 619526566 28597169 547625725" />
        
        <route id="4235e4220n" edges="619523290#0 619523290#1 619523288 619526570#0 619526570#1 620377514#1 619526569#1 619526568 619526567 619526566 122089528#1 620377517 gneE3 28641509" />
        <route id="4235n4220n" edges="-628341438#1 -628341438#0 -61645695 619526570#0 619526570#1 620377514#1 619526569#1 619526568 619526567 619526566 122089528#1 620377517 gneE3 28641509" />     
        <route id="4235e4220s" edges="619523290#0 619523290#1 619523288 619526570#0 619526570#1 620377514#1 619526569#1 619526568 619526567 619526566 122089528#1 620377517 620377517.54 624439643 66457665 665260214#0" />
        <route id="4235n4220s" edges="-628341438#1 -628341438#0 -61645695 619526570#0 619526570#1 620377514#1 619526569#1 619526568 619526567 619526566 122089528#1 620377517 620377517.54 624439643 66457665 665260214#0" />
        <route id="4219s4220n" edges="620377506 gneE2 620377517 gneE3 28641509" />
        <route id="4219s4220s" edges="620377506 gneE2 620377517 620377517.54 624439643 66457665 665260214#0" />
        <route id="4219n4220n" edges="620377515 122089525.34 122089528#1 620377517 gneE3 28641509" />
        <route id="4219n4220s" edges="620377515 122089525.34 122089528#1 620377517 620377517.54 624439643 66457665 665260214#0" />
        
        <route id="4235e4221n" edges="619523290#0 619523290#1 619523288 619526570#0 619526570#1 620377514#1 619526569#1 619526568 619526567 619526566 122089528#1 620377517 620377517.54 624439645 620377518 28573047 669665014 669665015#1 28594060#0 28594060#1 28594060#2 28594060#3 28594060#4" />
        <route id="4235n4221n" edges="-628341438#1 -628341438#0 -61645695 619526570#0 619526570#1 620377514#1 619526569#1 619526568 619526567 619526566 122089528#1 620377517 620377517.54 624439645 620377518 28573047 669665014 669665015#1 28594060#0 28594060#1 28594060#2 28594060#3 28594060#4" />      
        <route id="4235e4221s" edges="619523290#0 619523290#1 619523288 619526570#0 619526570#1 620377514#1 619526569#1 619526568 619526567 619526566 122089528#1 620377517 620377517.54 624439645 620377518 159605088 207149704#0 207149704#1 112543664 620377510 620463733" />
        <route id="4235n4221s" edges="-628341438#1 -628341438#0 -61645695 619526570#0 619526570#1 620377514#1 619526569#1 619526568 619526567 619526566 122089528#1 620377517 620377517.54 624439645 620377518 159605088 207149704#0 207149704#1 112543664 620377510 620463733" />
        <route id="4219s4221n" edges="620377506 gneE2 620377517 gneE3 28641509 620377517 620377517.54 624439645 620377518 28573047 669665014 669665015#1 28594060#0 28594060#1 28594060#2 28594060#3 28594060#4" />
        <route id="4219s4221s" edges="620377506 gneE2 620377517 gneE3 28641509 620377517 620377517.54 624439645 620377518 159605088 207149704#0 207149704#1 112543664 620377510 620463733" />
        <route id="4219n4221n" edges="620377515 122089525.34 122089528#1 620377517 620377517.54 624439645 620377518 28573047 669665014 669665015#1 28594060#0 28594060#1 28594060#2 28594060#3 28594060#4" />
        <route id="4219n4221s" edges="620377515 122089525.34 122089528#1 620377517 620377517.54 624439645 620377518 159605088 207149704#0 207149704#1 112543664 620377510 620463733" />
        <route id="4220s4221n" edges="-28641509 28641508 620377518 28573047 669665014 669665015#1 28594060#0 28594060#1 28594060#2 28594060#3 28594060#4" />
        <route id="4220s4221s" edges="-28641509 28641508 620377518 159605088 207149704#0 207149704#1 112543664 620377510 620463733" />
        
        <route id="4235e4221e" edges="619523290#0 619523290#1 619523288 619526570#0 619526570#1 620377514#1 619526569#1 619526568 619526567 619526566 122089528#1 620377517 620377517.54 624439645 620377518 159605088 7637388#0 7637388#1 28573015#0 28573015#1 28573015#2 28573015#3 28573015#4 28573015#5 28573015#6" />
        <route id="4235n4221e" edges="-628341438#1 -628341438#0 -61645695 619526570#0 619526570#1 620377514#1 619526569#1 619526568 619526567 619526566 122089528#1 620377517 620377517.54 624439645 620377518 159605088 7637388#0 7637388#1 28573015#0 28573015#1 28573015#2 28573015#3 28573015#4 28573015#5 28573015#6" />
        
        <route id="4219s4221e" edges="620377506 gneE2 620377517  620377517.54 624439645 620377518 159605088 7637388#0 7637388#1 28573015#0 28573015#1 28573015#2 28573015#3 28573015#4 28573015#5 28573015#6" />
        <route id="4219n4221e" edges="620377515 122089525.34 122089528#1 620377517 620377517.54 624439645 620377518 159605088 7637388#0 7637388#1 28573015#0 28573015#1 28573015#2 28573015#3 28573015#4 28573015#5 28573015#6" />
        
        <route id="4220s4221e" edges="-28641509 28641508 620377518 159605088 7637388#0 7637388#1 28573015#0 28573015#1 28573015#2 28573015#3 28573015#4 28573015#5 28573015#6" />
    <vehicle id="right_0" route="se4235" depart="3" />
    <vehicle id="right_1" route="se4235" depart="4" />
    <vehicle id="down_2" route="north4219" depart="7" color="1,0,0"/>
    <vehicle id="down_3" route="north4219" depart="8" color="1,0,0"/>
    <vehicle id="right_4" route="se4235" depart="9" />
    <vehicle id="down_5" route="north4219" depart="13" color="1,0,0"/>
    <vehicle id="down_6" route="north4219" depart="14" color="1,0,0"/>
    <vehicle id="down_7" route="north4219" depart="18" color="1,0,0"/>
    <vehicle id="down_8" route="north4219" depart="29" color="1,0,0"/>
    <vehicle id="down_9" route="north4219" depart="37" color="1,0,0"/>
    <vehicle id="down_10" route="north4219" depart="39" color="1,0,0"/>
    <vehicle id="right_11" route="se4235" depart="42" />
    <vehicle id="down_12" route="north4219" depart="43" color="1,0,0"/>
    <vehicle id="down_13" route="north4219" depart="44" color="1,0,0"/>
    <vehicle id="right_14" route="se4235" depart="55" />
    <vehicle id="down_15" route="north4219" depart="58" color="1,0,0"/>
    <vehicle id="right_16" route="se4235" depart="61" />
    <vehicle id="down_17" route="north4219" depart="62" color="1,0,0"/>
    <vehicle id="down_18" route="north4219" depart="65" color="1,0,0"/>
    <vehicle id="down_19" route="north4219" depart="67" color="1,0,0"/>
    <vehicle id="right_20" route="se4235" depart="69" />
    <vehicle id="down_21" route="north4219" depart="72" color="1,0,0"/>
    <vehicle id="down_22" route="north4219" depart="74" color="1,0,0"/>
    <vehicle id="down_23" route="north4219" depart="76" color="1,0,0"/>
    <vehicle id="right_24" route="se4235" depart="84" />
    <vehicle id="down_25" route="north4219" depart="85" color="1,0,0"/>
    <vehicle id="down_26" route="north4219" depart="87" color="1,0,0"/>
    <vehicle id="down_27" route="north4219" depart="89" color="1,0,0"/>
    <vehicle id="down_28" route="north4219" depart="91" color="1,0,0"/>
    <vehicle id="down_29" route="north4219" depart="93" color="1,0,0"/>
    <vehicle id="down_30" route="north4219" depart="95" color="1,0,0"/>
    <vehicle id="down_31" route="north4219" depart="96" color="1,0,0"/>
    <vehicle id="right_32" route="se4235" depart="99" />
    <vehicle id="down_33" route="north4219" depart="101" color="1,0,0"/>
    <vehicle id="down_34" route="north4219" depart="103" color="1,0,0"/>
    <vehicle id="right_35" route="se4235" depart="108" />
    <vehicle id="right_36" route="se4235" depart="114" />
    <vehicle id="down_37" route="north4219" depart="117" color="1,0,0"/>
    <vehicle id="down_38" route="north4219" depart="122" color="1,0,0"/>
    <vehicle id="right_39" route="se4235" depart="125" />
    <vehicle id="down_40" route="north4219" depart="128" color="1,0,0"/>
    <vehicle id="down_41" route="north4219" depart="139" color="1,0,0"/>
    <vehicle id="down_42" route="north4219" depart="140" color="1,0,0"/>
    <vehicle id="right_43" route="se4235" depart="145" />
    <vehicle id="down_44" route="north4219" depart="157" color="1,0,0"/>
    <vehicle id="down_45" route="north4219" depart="165" color="1,0,0"/>
    <vehicle id="right_46" route="se4235" depart="167" />
    <vehicle id="right_47" route="se4235" depart="168" />
    <vehicle id="down_48" route="north4219" depart="168" color="1,0,0"/>
    <vehicle id="down_49" route="north4219" depart="172" color="1,0,0"/>
    <vehicle id="down_50" route="north4219" depart="175" color="1,0,0"/>
    <vehicle id="right_51" route="se4235" depart="176" />
    <vehicle id="down_52" route="north4219" depart="176" color="1,0,0"/>
    <vehicle id="down_53" route="north4219" depart="178" color="1,0,0"/>
    <vehicle id="down_54" route="north4219" depart="179" color="1,0,0"/>
    <vehicle id="down_55" route="north4219" depart="180" color="1,0,0"/>
    <vehicle id="right_56" route="se4235" depart="181" />
    <vehicle id="right_57" route="se4235" depart="183" />
    <vehicle id="right_58" route="se4235" depart="184" />
    <vehicle id="down_59" route="north4219" depart="188" color="1,0,0"/>
    <vehicle id="right_60" route="se4235" depart="200" />
    <vehicle id="down_61" route="north4219" depart="202" color="1,0,0"/>
    <vehicle id="down_62" route="north4219" depart="207" color="1,0,0"/>
    <vehicle id="down_63" route="north4219" depart="208" color="1,0,0"/>
    <vehicle id="right_64" route="se4235" depart="211" />
    <vehicle id="down_65" route="north4219" depart="216" color="1,0,0"/>
    <vehicle id="right_66" route="se4235" depart="217" />
    <vehicle id="down_67" route="north4219" depart="218" color="1,0,0"/>
    <vehicle id="down_68" route="north4219" depart="219" color="1,0,0"/>
    <vehicle id="down_69" route="north4219" depart="227" color="1,0,0"/>
    <vehicle id="right_70" route="se4235" depart="228" />
    <vehicle id="down_71" route="north4219" depart="234" color="1,0,0"/>
    <vehicle id="down_72" route="north4219" depart="238" color="1,0,0"/>
    <vehicle id="right_73" route="se4235" depart="240" />
    <vehicle id="down_74" route="north4219" depart="242" color="1,0,0"/>
    <vehicle id="down_75" route="north4219" depart="245" color="1,0,0"/>
    <vehicle id="down_76" route="north4219" depart="252" color="1,0,0"/>
    <vehicle id="down_77" route="north4219" depart="259" color="1,0,0"/>
    <vehicle id="down_78" route="north4219" depart="270" color="1,0,0"/>
    <vehicle id="down_79" route="north4219" depart="283" color="1,0,0"/>
    <vehicle id="right_80" route="se4235" depart="284" />
    <vehicle id="right_81" route="se4235" depart="286" />
    <vehicle id="right_82" route="se4235" depart="288" />
    <vehicle id="down_83" route="north4219" depart="290" color="1,0,0"/>
    <vehicle id="right_84" route="se4235" depart="291" />
    <vehicle id="down_85" route="north4219" depart="292" color="1,0,0"/>
    <vehicle id="right_86" route="se4235" depart="294" />
    <vehicle id="down_87" route="north4219" depart="302" color="1,0,0"/>
    <vehicle id="down_88" route="north4219" depart="309" color="1,0,0"/>
    <vehicle id="down_89" route="north4219" depart="310" color="1,0,0"/>
    <vehicle id="down_90" route="north4219" depart="315" color="1,0,0"/>
    <vehicle id="down_91" route="north4219" depart="318" color="1,0,0"/>
    <vehicle id="down_92" route="north4219" depart="321" color="1,0,0"/>
    <vehicle id="right_93" route="se4235" depart="322" />
    <vehicle id="down_94" route="north4219" depart="323" color="1,0,0"/>
    <vehicle id="down_95" route="north4219" depart="326" color="1,0,0"/>
    <vehicle id="down_96" route="north4219" depart="329" color="1,0,0"/>
    <vehicle id="down_97" route="north4219" depart="331" color="1,0,0"/>
    <vehicle id="down_98" route="north4219" depart="335" color="1,0,0"/>
    <vehicle id="down_99" route="north4219" depart="337" color="1,0,0"/>
    <vehicle id="down_100" route="north4219" depart="338" color="1,0,0"/>
    <vehicle id="right_101" route="se4235" depart="342" />
    <vehicle id="down_102" route="north4219" depart="342" color="1,0,0"/>
    <vehicle id="down_103" route="north4219" depart="343" color="1,0,0"/>
    <vehicle id="down_104" route="north4219" depart="344" color="1,0,0"/>
    <vehicle id="down_105" route="north4219" depart="348" color="1,0,0"/>
    <vehicle id="down_106" route="north4219" depart="349" color="1,0,0"/>
    <vehicle id="down_107" route="north4219" depart="351" color="1,0,0"/>
    <vehicle id="down_108" route="north4219" depart="353" color="1,0,0"/>
    <vehicle id="down_109" route="north4219" depart="354" color="1,0,0"/>
    <vehicle id="down_110" route="north4219" depart="357" color="1,0,0"/>
    <vehicle id="down_111" route="north4219" depart="359" color="1,0,0"/>
    <vehicle id="down_112" route="north4219" depart="361" color="1,0,0"/>
    <vehicle id="down_113" route="north4219" depart="363" color="1,0,0"/>
    <vehicle id="down_114" route="north4219" depart="364" color="1,0,0"/>
    <vehicle id="right_115" route="se4235" depart="375" />
    <vehicle id="down_116" route="north4219" depart="377" color="1,0,0"/>
    <vehicle id="down_117" route="north4219" depart="379" color="1,0,0"/>
    <vehicle id="down_118" route="north4219" depart="382" color="1,0,0"/>
    <vehicle id="right_119" route="se4235" depart="383" />
    <vehicle id="left_120" route="4219n4221s" depart="389" />
    <vehicle id="down_121" route="north4219" depart="390" color="1,0,0"/>
    <vehicle id="left_122" route="4219n4221s" depart="391" />
    <vehicle id="right_123" route="se4235" depart="394" />
    <vehicle id="down_124" route="north4219" depart="394" color="1,0,0"/>
    <vehicle id="right_125" route="se4235" depart="395" />
    <vehicle id="down_126" route="north4219" depart="397" color="1,0,0"/>
    <vehicle id="down_127" route="north4219" depart="399" color="1,0,0"/>
    <vehicle id="down_128" route="north4219" depart="402" color="1,0,0"/>
    <vehicle id="down_129" route="north4219" depart="405" color="1,0,0"/>
    <vehicle id="down_130" route="north4219" depart="407" color="1,0,0"/>
    <vehicle id="down_131" route="north4219" depart="411" color="1,0,0"/>
    <vehicle id="right_132" route="se4235" depart="412" />
    <vehicle id="down_133" route="north4219" depart="414" color="1,0,0"/>
    <vehicle id="down_134" route="north4219" depart="420" color="1,0,0"/>
    <vehicle id="down_135" route="north4219" depart="422" color="1,0,0"/>
    <vehicle id="down_136" route="north4219" depart="426" color="1,0,0"/>
    <vehicle id="down_137" route="north4219" depart="436" color="1,0,0"/>
    <vehicle id="down_138" route="north4219" depart="438" color="1,0,0"/>
    <vehicle id="down_139" route="north4219" depart="440" color="1,0,0"/>
    <vehicle id="down_140" route="north4219" depart="441" color="1,0,0"/>
    <vehicle id="down_141" route="north4219" depart="443" color="1,0,0"/>
    <vehicle id="down_142" route="north4219" depart="451" color="1,0,0"/>
    <vehicle id="down_143" route="north4219" depart="455" color="1,0,0"/>
    <vehicle id="down_144" route="north4219" depart="456" color="1,0,0"/>
    <vehicle id="down_145" route="north4219" depart="457" color="1,0,0"/>
    <vehicle id="right_146" route="se4235" depart="458" />
    <vehicle id="down_147" route="north4219" depart="458" color="1,0,0"/>
    <vehicle id="down_148" route="north4219" depart="459" color="1,0,0"/>
    <vehicle id="down_149" route="north4219" depart="462" color="1,0,0"/>
    <vehicle id="down_150" route="north4219" depart="463" color="1,0,0"/>
    <vehicle id="right_151" route="se4235" depart="467" />
    <vehicle id="right_152" route="se4235" depart="473" />
    <vehicle id="right_153" route="se4235" depart="479" />
    <vehicle id="right_154" route="se4235" depart="482" />
    <vehicle id="down_155" route="north4219" depart="483" color="1,0,0"/>
    <vehicle id="right_156" route="se4235" depart="484" />
    <vehicle id="down_157" route="north4219" depart="485" color="1,0,0"/>
    <vehicle id="down_158" route="north4219" depart="498" color="1,0,0"/>
    <vehicle id="down_159" route="north4219" depart="500" color="1,0,0"/>
    <vehicle id="down_160" route="north4219" depart="501" color="1,0,0"/>
    <vehicle id="right_161" route="se4235" depart="502" />
    <vehicle id="down_162" route="north4219" depart="506" color="1,0,0"/>
    <vehicle id="down_163" route="north4219" depart="508" color="1,0,0"/>
    <vehicle id="down_164" route="north4219" depart="512" color="1,0,0"/>
    <vehicle id="down_165" route="north4219" depart="517" color="1,0,0"/>
    <vehicle id="down_166" route="north4219" depart="518" color="1,0,0"/>
    <vehicle id="down_167" route="north4219" depart="520" color="1,0,0"/>
    <vehicle id="right_168" route="se4235" depart="523" />
    <vehicle id="down_169" route="north4219" depart="527" color="1,0,0"/>
    <vehicle id="down_170" route="north4219" depart="530" color="1,0,0"/>
    <vehicle id="down_171" route="north4219" depart="531" color="1,0,0"/>
    <vehicle id="down_172" route="north4219" depart="533" color="1,0,0"/>
    <vehicle id="right_173" route="se4235" depart="536" />
    <vehicle id="down_174" route="north4219" depart="541" color="1,0,0"/>
    <vehicle id="down_175" route="north4219" depart="542" color="1,0,0"/>
    <vehicle id="down_176" route="north4219" depart="548" color="1,0,0"/>
    <vehicle id="down_177" route="north4219" depart="553" color="1,0,0"/>
    <vehicle id="down_178" route="north4219" depart="559" color="1,0,0"/>
    <vehicle id="down_179" route="north4219" depart="561" color="1,0,0"/>
    <vehicle id="right_180" route="se4235" depart="565" />
    <vehicle id="down_181" route="north4219" depart="573" color="1,0,0"/>
    <vehicle id="down_182" route="north4219" depart="577" color="1,0,0"/>
    <vehicle id="down_183" route="north4219" depart="582" color="1,0,0"/>
    <vehicle id="down_184" route="north4219" depart="584" color="1,0,0"/>
    <vehicle id="down_185" route="north4219" depart="587" color="1,0,0"/>
    <vehicle id="down_186" route="north4219" depart="588" color="1,0,0"/>
</routes>
