<?xml version="1.0" encoding="UTF-8"?>

<!-- generated on 07/08/20 12:40:56 by Eclipse SUMO netedit Version 1.5.0
<configuration xmlns:xsi="http://www.w3.org/2001/XMLSchema-instance" xsi:noNamespaceSchemaLocation="http://sumo.dlr.de/xsd/netconvertConfiguration.xsd">

    <input>
        <sumo-net-file value="C:\Users\josha\Documents\GitHub\Part-IV-Project\_TiRakauDrive\data\osm.net.xml"/>
    </input>

    <output>
        <output-file value="C:\Users\josha\Documents\GitHub\Part-IV-Project\_TiRakauDrive\data\osm.net.xml"/>
        <output.street-names value="true"/>
    </output>

    <processing>
        <geometry.min-radius.fix.railways value="false"/>
        <geometry.max-grade.fix value="false"/>
        <offset.disable-normalization value="true"/>
        <lefthand value="true"/>
    </processing>

    <junctions>
        <no-turnarounds value="true"/>
        <junctions.corner-detail value="5"/>
        <junctions.limit-turn-speed value="5.5"/>
        <rectangular-lane-cut value="false"/>
    </junctions>

    <pedestrian>
        <walkingareas value="false"/>
    </pedestrian>

    <report>
        <aggregate-warnings value="5"/>
    </report>

</configuration>
-->

<net version="1.3" junctionCornerDetail="5" lefthand="true" limitTurnSpeed="5.50" xmlns:xsi="http://www.w3.org/2001/XMLSchema-instance" xsi:noNamespaceSchemaLocation="http://sumo.dlr.de/xsd/net_file.xsd">

    <location netOffset="-313432.32,4089969.81" convBoundary="0.00,529.74,1338.32,1367.04" origBoundary="174.889751,-36.937572,174.928607,-36.919884" projParameter="+proj=utm +zone=60 +ellps=WGS84 +datum=WGS84 +units=m +no_defs"/>

    <type id="highway.bridleway" priority="1" numLanes="1" speed="2.78" allow="pedestrian" oneway="1" width="2.00"/>
    <type id="highway.bus_guideway" priority="1" numLanes="1" speed="27.78" allow="bus" oneway="1"/>
    <type id="highway.cycleway" priority="1" numLanes="1" speed="8.33" allow="bicycle" oneway="0" width="1.00"/>
    <type id="highway.footway" priority="1" numLanes="1" speed="2.78" allow="pedestrian" oneway="1" width="2.00"/>
    <type id="highway.ford" priority="1" numLanes="1" speed="2.78" allow="army" oneway="0"/>
    <type id="highway.living_street" priority="2" numLanes="1" speed="2.78" disallow="tram rail_urban rail rail_electric rail_fast ship" oneway="0"/>
    <type id="highway.motorway" priority="14" numLanes="2" speed="39.44" allow="private emergency authority army vip passenger hov taxi bus coach delivery truck trailer motorcycle evehicle custom1 custom2" oneway="1"/>
    <type id="highway.motorway_link" priority="9" numLanes="1" speed="22.22" allow="private emergency authority army vip passenger hov taxi bus coach delivery truck trailer motorcycle evehicle custom1 custom2" oneway="1"/>
    <type id="highway.path" priority="1" numLanes="1" speed="2.78" allow="pedestrian bicycle" oneway="1" width="2.00"/>
    <type id="highway.pedestrian" priority="1" numLanes="1" speed="2.78" allow="pedestrian" oneway="1" width="2.00"/>
    <type id="highway.primary" priority="12" numLanes="2" speed="27.78" disallow="tram rail_urban rail rail_electric rail_fast ship" oneway="0"/>
    <type id="highway.primary_link" priority="7" numLanes="1" speed="22.22" disallow="tram rail_urban rail rail_electric rail_fast ship" oneway="0"/>
    <type id="highway.raceway" priority="15" numLanes="2" speed="83.33" allow="vip" oneway="0"/>
    <type id="highway.residential" priority="3" numLanes="1" speed="13.89" disallow="tram rail_urban rail rail_electric rail_fast ship" oneway="0"/>
    <type id="highway.secondary" priority="11" numLanes="1" speed="27.78" disallow="tram rail_urban rail rail_electric rail_fast ship" oneway="0"/>
    <type id="highway.secondary_link" priority="6" numLanes="1" speed="22.22" disallow="tram rail_urban rail rail_electric rail_fast ship" oneway="0"/>
    <type id="highway.service" priority="1" numLanes="1" speed="5.56" allow="pedestrian delivery bicycle" oneway="0"/>
    <type id="highway.stairs" priority="1" numLanes="1" speed="1.39" allow="pedestrian" oneway="1" width="2.00"/>
    <type id="highway.step" priority="1" numLanes="1" speed="1.39" allow="pedestrian" oneway="1" width="2.00"/>
    <type id="highway.steps" priority="1" numLanes="1" speed="1.39" allow="pedestrian" oneway="1" width="2.00"/>
    <type id="highway.tertiary" priority="10" numLanes="1" speed="22.22" disallow="tram rail_urban rail rail_electric rail_fast ship" oneway="0"/>
    <type id="highway.tertiary_link" priority="5" numLanes="1" speed="22.22" disallow="tram rail_urban rail rail_electric rail_fast ship" oneway="0"/>
    <type id="highway.track" priority="1" numLanes="1" speed="5.56" disallow="tram rail_urban rail rail_electric rail_fast ship" oneway="0"/>
    <type id="highway.trunk" priority="13" numLanes="2" speed="27.78" disallow="pedestrian bicycle tram rail_urban rail rail_electric rail_fast ship" oneway="0"/>
    <type id="highway.trunk_link" priority="8" numLanes="1" speed="22.22" disallow="pedestrian bicycle tram rail_urban rail rail_electric rail_fast ship" oneway="0"/>
    <type id="highway.unclassified" priority="4" numLanes="1" speed="13.89" disallow="tram rail_urban rail rail_electric rail_fast ship" oneway="0"/>
    <type id="highway.unsurfaced" priority="1" numLanes="1" speed="8.33" disallow="tram rail_urban rail rail_electric rail_fast ship" oneway="0"/>
    <type id="railway.highspeed" priority="21" numLanes="1" speed="69.44" allow="rail_fast" oneway="1"/>
    <type id="railway.light_rail" priority="19" numLanes="1" speed="27.78" allow="rail_urban" oneway="1"/>
    <type id="railway.preserved" priority="16" numLanes="1" speed="27.78" allow="rail" oneway="1"/>
    <type id="railway.rail" priority="20" numLanes="1" speed="44.44" allow="rail" oneway="1"/>
    <type id="railway.subway" priority="18" numLanes="1" speed="27.78" allow="rail_urban" oneway="1"/>
    <type id="railway.tram" priority="17" numLanes="1" speed="13.89" allow="tram" oneway="1"/>

    <edge id=":117331015_0" function="internal">
        <lane id=":117331015_0_0" index="0" disallow="tram rail_urban rail rail_electric rail_fast ship" speed="60.00" length="0.25" shape="652.29,1052.03 652.31,1052.11"/>
        <lane id=":117331015_0_1" index="1" disallow="tram rail_urban rail rail_electric rail_fast ship" speed="60.00" length="0.25" shape="655.42,1051.36 655.47,1051.60"/>
        <lane id=":117331015_0_2" index="2" disallow="tram rail_urban rail rail_electric rail_fast ship" speed="60.00" length="0.25" shape="658.55,1050.69 658.63,1051.09"/>
    </edge>
    <edge id=":122089583#1-AddedOffRampNode_0" function="internal">
        <lane id=":122089583#1-AddedOffRampNode_0_0" index="0" disallow="tram rail_urban rail rail_electric rail_fast ship" speed="60.00" length="21.56" shape="503.63,945.02 497.55,943.25 493.52,941.66 489.56,939.85 483.69,937.44"/>
        <lane id=":122089583#1-AddedOffRampNode_0_1" index="1" disallow="tram rail_urban rail rail_electric rail_fast ship" speed="60.00" length="21.56" shape="502.67,948.08 496.54,946.30 492.47,944.69 488.47,942.86 482.55,940.43"/>
        <lane id=":122089583#1-AddedOffRampNode_0_2" index="2" disallow="tram rail_urban rail rail_electric rail_fast ship" speed="60.00" length="21.56" shape="501.72,951.14 495.53,949.34 491.43,947.72 487.39,945.88 481.41,943.42"/>
    </edge>
    <edge id=":132348946_0" function="internal">
        <lane id=":132348946_0_0" index="0" disallow="tram rail_urban rail rail_electric rail_fast ship" speed="60.00" length="0.13" shape="1044.11,847.22 1044.24,847.23"/>
    </edge>
    <edge id=":132348946_1" function="internal">
        <lane id=":132348946_1_0" index="0" disallow="tram rail_urban rail rail_electric rail_fast ship" speed="60.00" length="0.10" shape="1044.82,850.31 1044.78,850.35"/>
    </edge>
    <edge id=":137485478_0" function="internal">
        <lane id=":137485478_0_0" index="0" disallow="tram rail_urban rail rail_electric rail_fast ship" speed="60.00" length="9.48" shape="1090.42,1016.35 1088.58,1014.38 1087.27,1013.06 1086.15,1011.61 1084.89,1009.27"/>
        <lane id=":137485478_0_1" index="1" disallow="tram rail_urban rail rail_electric rail_fast ship" speed="60.00" length="9.48" shape="1088.00,1018.45 1086.00,1016.28 1084.58,1014.82 1083.37,1013.22 1082.00,1010.64"/>
    </edge>
    <edge id=":137485478_2" function="internal">
        <lane id=":137485478_2_0" index="0" disallow="tram rail_urban rail rail_electric rail_fast ship" speed="10.47" length="4.89" shape="1079.82,1020.37 1080.95,1020.83 1081.70,1021.21 1082.35,1021.75 1083.17,1022.64"/>
        <lane id=":137485478_2_1" index="1" disallow="tram rail_urban rail rail_electric rail_fast ship" speed="12.20" length="4.89" shape="1081.00,1017.40 1082.55,1018.03 1083.58,1018.57 1084.46,1019.31 1085.59,1020.54"/>
    </edge>
    <edge id=":137486772_0" function="internal">
        <lane id=":137486772_0_0" index="0" disallow="tram rail_urban rail rail_electric rail_fast ship" speed="60.00" length="21.47" shape="932.25,749.90 929.78,743.51 927.80,738.19 926.42,733.68 925.70,729.75"/>
        <lane id=":137486772_0_1" index="1" disallow="tram rail_urban rail rail_electric rail_fast ship" speed="60.00" length="21.47" shape="929.26,751.05 927.26,744.48 926.31,738.77 925.95,733.86 925.70,729.75"/>
    </edge>
    <edge id=":137486772_2" function="internal">
        <lane id=":137486772_2_0" index="0" disallow="tram rail_urban rail rail_electric rail_fast ship" speed="60.00" length="21.60" shape="922.52,730.05 922.65,734.08 922.40,738.85 921.86,744.54 921.14,751.37"/>
        <lane id=":137486772_2_1" index="1" disallow="tram rail_urban rail rail_electric rail_fast ship" speed="60.00" length="21.60" shape="922.52,730.05 923.15,734.14 923.99,739.01 924.55,744.82 924.33,751.70"/>
    </edge>
    <edge id=":1490190019_0" function="internal">
        <lane id=":1490190019_0_0" index="0" disallow="tram rail_urban rail rail_electric rail_fast ship" speed="60.00" length="17.58" shape="523.70,949.93 518.76,949.22 515.45,948.39 512.17,947.35 507.36,945.98"/>
        <lane id=":1490190019_0_1" index="1" disallow="tram rail_urban rail rail_electric rail_fast ship" speed="60.00" length="17.58" shape="523.43,953.12 518.28,952.38 514.81,951.53 511.39,950.45 506.37,949.03"/>
        <lane id=":1490190019_0_2" index="2" disallow="tram rail_urban rail rail_electric rail_fast ship" speed="60.00" length="17.58" shape="523.16,956.31 517.79,955.55 514.18,954.67 510.61,953.56 505.37,952.08"/>
    </edge>
    <edge id=":1490190029_0" function="internal">
        <lane id=":1490190029_0_0" index="0" disallow="tram rail_urban rail rail_electric rail_fast ship" speed="60.00" length="0.23" shape="997.28,950.23 997.53,950.48"/>
        <lane id=":1490190029_0_1" index="1" disallow="tram rail_urban rail rail_electric rail_fast ship" speed="60.00" length="0.23" shape="999.58,948.02 999.67,948.10"/>
    </edge>
    <edge id=":1707799577_0" function="internal">
        <lane id=":1707799577_0_0" index="0" disallow="tram rail_urban rail rail_electric rail_fast ship" speed="60.00" length="18.11" shape="926.18,802.87 926.30,808.73 925.45,813.29 924.45,817.11 924.11,820.76"/>
    </edge>
    <edge id=":1707799577_1" function="internal">
        <lane id=":1707799577_1_0" index="0" disallow="tram rail_urban rail rail_electric rail_fast ship" speed="38.34" length="15.04" shape="926.18,802.87 928.13,817.78"/>
        <lane id=":1707799577_1_1" index="1" disallow="tram rail_urban rail rail_electric rail_fast ship" speed="38.34" length="15.04" shape="929.35,802.45 931.30,817.36"/>
    </edge>
    <edge id=":1707799579_0" function="internal">
        <lane id=":1707799579_0_0" index="0" disallow="tram rail_urban rail rail_electric rail_fast ship" speed="60.00" length="8.35" shape="859.94,896.50 857.42,896.54 855.68,895.35 853.93,894.11 851.36,893.99"/>
        <lane id=":1707799579_0_1" index="1" disallow="tram rail_urban rail rail_electric rail_fast ship" speed="60.00" length="8.35" shape="859.94,896.50 857.69,896.97 856.07,896.89 854.44,896.76 852.14,897.09"/>
        <lane id=":1707799579_0_2" index="2" disallow="tram rail_urban rail rail_electric rail_fast ship" speed="60.00" length="8.35" shape="859.94,896.50 857.79,897.46 856.46,898.44 855.11,899.38 852.92,900.19"/>
        <lane id=":1707799579_0_3" index="3" disallow="tram rail_urban rail rail_electric rail_fast ship" speed="60.00" length="8.35" shape="860.93,899.54 858.72,900.52 857.35,901.52 855.96,902.47 853.71,903.29"/>
    </edge>
    <edge id=":1730323351_0" function="internal">
        <lane id=":1730323351_0_0" index="0" disallow="tram rail_urban rail rail_electric rail_fast ship" speed="60.00" length="0.31" shape="1271.06,1263.68 1270.88,1263.43"/>
        <lane id=":1730323351_0_1" index="1" disallow="tram rail_urban rail rail_electric rail_fast ship" speed="60.00" length="0.31" shape="1268.45,1265.53 1268.28,1265.28"/>
    </edge>
    <edge id=":1730323351_2" function="internal">
        <lane id=":1730323351_2_0" index="0" disallow="tram rail_urban rail rail_electric rail_fast ship" speed="60.00" length="0.29" shape="1263.06,1268.99 1263.23,1269.22"/>
        <lane id=":1730323351_2_1" index="1" disallow="tram rail_urban rail rail_electric rail_fast ship" speed="60.00" length="0.29" shape="1265.67,1267.14 1265.84,1267.38"/>
    </edge>
    <edge id=":25953424_0" function="internal">
        <lane id=":25953424_0_0" index="0" disallow="tram rail_urban rail rail_electric rail_fast ship" speed="60.00" length="0.10" shape="1216.63,803.97 1216.70,803.94"/>
    </edge>
    <edge id=":25953424_1" function="internal">
        <lane id=":25953424_1_0" index="0" disallow="tram rail_urban rail rail_electric rail_fast ship" speed="60.00" length="0.10" shape="1218.12,806.80 1218.19,806.77"/>
    </edge>
    <edge id=":25953425_0" function="internal">
        <lane id=":25953425_0_0" index="0" disallow="tram rail_urban rail rail_electric rail_fast ship" speed="60.00" length="0.16" shape="1168.42,825.29 1168.37,825.30 1168.34,825.31 1168.31,825.32 1168.26,825.34"/>
    </edge>
    <edge id=":25953425_1" function="internal">
        <lane id=":25953425_1_0" index="0" disallow="tram rail_urban rail rail_electric rail_fast ship" speed="60.00" length="0.49" shape="1169.08,828.43 1169.22,828.39 1169.32,828.36 1169.41,828.33 1169.55,828.28"/>
    </edge>
    <edge id=":25953429_0" function="internal">
        <lane id=":25953429_0_0" index="0" disallow="tram rail_urban rail rail_electric rail_fast ship" speed="60.00" length="0.11" shape="1111.29,837.87 1111.18,837.89"/>
    </edge>
    <edge id=":25953429_1" function="internal">
        <lane id=":25953429_1_0" index="0" disallow="tram rail_urban rail rail_electric rail_fast ship" speed="60.00" length="0.34" shape="1111.50,841.07 1111.83,841.03"/>
    </edge>
    <edge id=":25953433_0" function="internal">
        <lane id=":25953433_0_0" index="0" disallow="tram rail_urban rail rail_electric rail_fast ship" speed="60.00" length="0.10" shape="1256.43,777.78 1256.51,777.72"/>
    </edge>
    <edge id=":25953433_1" function="internal">
        <lane id=":25953433_1_0" index="0" disallow="tram rail_urban rail rail_electric rail_fast ship" speed="60.00" length="0.10" shape="1258.39,780.30 1258.47,780.24"/>
    </edge>
    <edge id=":25953435_0" function="internal">
        <lane id=":25953435_0_0" index="0" disallow="tram rail_urban rail rail_electric rail_fast ship" speed="60.00" length="0.31" shape="1276.62,761.09 1276.38,761.29"/>
    </edge>
    <edge id=":25953435_1" function="internal">
        <lane id=":25953435_1_0" index="0" disallow="tram rail_urban rail rail_electric rail_fast ship" speed="60.00" length="0.26" shape="1278.42,763.75 1278.62,763.59"/>
    </edge>
    <edge id=":25953544_0" function="internal">
        <lane id=":25953544_0_0" index="0" disallow="tram rail_urban rail rail_electric rail_fast ship" speed="60.00" length="0.26" shape="919.39,663.21 919.36,662.95"/>
    </edge>
    <edge id=":25953544_1" function="internal">
        <lane id=":25953544_1_0" index="0" disallow="tram rail_urban rail rail_electric rail_fast ship" speed="60.00" length="0.31" shape="916.17,663.20 916.20,663.51"/>
    </edge>
    <edge id=":313863429_0" function="internal">
        <lane id=":313863429_0_0" index="0" disallow="tram rail_urban rail rail_electric rail_fast ship" speed="60.00" length="8.42" shape="996.29,924.53 994.63,922.70 993.78,921.18 992.95,919.66 991.32,917.78"/>
    </edge>
    <edge id=":313863429_1" function="internal">
        <lane id=":313863429_1_0" index="0" disallow="tram rail_urban rail rail_electric rail_fast ship" speed="60.00" length="8.38" shape="996.29,924.53 994.30,923.05 992.74,922.28 991.25,921.44 989.46,919.77"/>
    </edge>
    <edge id=":313863429_2" function="internal">
        <lane id=":313863429_2_0" index="0" disallow="tram rail_urban rail rail_electric rail_fast ship" speed="60.00" length="8.45" shape="994.15,926.91 992.14,925.42 990.57,924.64 989.06,923.80 987.26,922.11"/>
    </edge>
    <edge id=":313863429_3" function="internal">
        <lane id=":313863429_3_0" index="0" disallow="tram rail_urban rail rail_electric rail_fast ship" speed="60.00" length="8.52" shape="992.01,929.29 989.99,927.79 988.40,927.00 986.88,926.16 985.06,924.46"/>
    </edge>
    <edge id=":313863429_4" function="internal">
        <lane id=":313863429_4_0" index="0" disallow="tram rail_urban rail rail_electric rail_fast ship" speed="60.00" length="8.59" shape="989.87,931.67 987.83,930.15 986.23,929.37 984.69,928.51 982.86,926.80"/>
    </edge>
    <edge id=":313863434_0" function="internal">
        <lane id=":313863434_0_0" index="0" disallow="tram rail_urban rail rail_electric rail_fast ship" speed="7.24" length="7.78" shape="983.12,878.35 983.47,876.06 984.20,874.24 985.32,872.89 986.83,872.01"/>
    </edge>
    <edge id=":313863434_1" function="internal">
        <lane id=":313863434_1_0" index="0" disallow="tram rail_urban rail rail_electric rail_fast ship" speed="60.00" length="8.71" shape="978.68,875.08 986.83,872.01"/>
    </edge>
    <edge id=":313863524_0" function="internal">
        <lane id=":313863524_0_0" index="0" disallow="tram rail_urban rail rail_electric rail_fast ship" speed="7.50" length="7.57" shape="925.67,870.49 925.05,872.71 924.16,874.45 923.00,875.69 921.57,876.44"/>
    </edge>
    <edge id=":313863524_1" function="internal">
        <lane id=":313863524_1_0" index="0" disallow="tram rail_urban rail rail_electric rail_fast ship" speed="60.00" length="8.31" shape="929.51,873.93 921.57,876.44"/>
        <lane id=":313863524_1_1" index="1" disallow="tram rail_urban rail rail_electric rail_fast ship" speed="60.00" length="8.31" shape="930.47,876.99 922.56,879.49"/>
    </edge>
    <edge id=":313863668_0" function="internal">
        <lane id=":313863668_0_0" index="0" disallow="tram rail_urban rail rail_electric rail_fast ship" speed="7.49" length="7.99" shape="953.54,851.12 951.27,850.19 949.57,849.02 948.45,847.64 947.91,846.03"/>
    </edge>
    <edge id=":313863668_1" function="internal">
        <lane id=":313863668_1_0" index="0" disallow="tram rail_urban rail rail_electric rail_fast ship" speed="60.00" length="9.16" shape="949.86,854.73 949.11,852.19 948.65,850.43 948.31,848.65 947.91,846.03"/>
        <lane id=":313863668_1_1" index="1" disallow="tram rail_urban rail rail_electric rail_fast ship" speed="60.00" length="9.16" shape="946.80,855.65 946.01,852.98 945.52,851.13 945.16,849.25 944.75,846.49"/>
    </edge>
    <edge id=":313863768_0" function="internal">
        <lane id=":313863768_0_0" index="0" disallow="tram rail_urban rail rail_electric rail_fast ship" speed="58.96" length="33.65" shape="905.02,907.51 914.79,904.56 923.05,902.35 930.48,900.98 937.81,900.60"/>
    </edge>
    <edge id=":313863768_1" function="internal">
        <lane id=":313863768_1_0" index="0" disallow="tram rail_urban rail rail_electric rail_fast ship" speed="59.49" length="34.25" shape="905.02,907.51 914.76,904.06 922.93,900.74 930.29,898.28 937.58,897.40"/>
    </edge>
    <edge id=":313863768_2" function="internal">
        <lane id=":313863768_2_0" index="0" disallow="tram rail_urban rail rail_electric rail_fast ship" speed="60.00" length="34.72" shape="905.02,907.51 914.04,904.13 920.94,900.57 927.82,896.91 936.74,893.24"/>
        <lane id=":313863768_2_1" index="1" disallow="tram rail_urban rail rail_electric rail_fast ship" speed="60.00" length="34.72" shape="904.09,904.45 913.09,901.07 919.96,897.52 926.79,893.88 935.70,890.21"/>
        <lane id=":313863768_2_2" index="2" disallow="tram rail_urban rail rail_electric rail_fast ship" speed="60.00" length="34.72" shape="903.16,901.39 912.14,898.01 918.97,894.48 925.77,890.85 934.66,887.18"/>
    </edge>
    <edge id=":313863797_0" function="internal">
        <lane id=":313863797_0_0" index="0" disallow="tram rail_urban rail rail_electric rail_fast ship" speed="55.05" length="17.48" shape="947.92,903.11 952.31,905.58 955.54,907.02 958.47,908.80 961.94,912.29"/>
        <lane id=":313863797_0_1" index="1" disallow="tram rail_urban rail rail_electric rail_fast ship" speed="56.83" length="17.48" shape="949.52,900.33 954.19,902.98 957.61,904.55 960.70,906.49 964.39,910.23"/>
    </edge>
    <edge id=":313863797_2" function="internal">
        <lane id=":313863797_2_0" index="0" disallow="tram rail_urban rail rail_electric rail_fast ship" speed="60.00" length="17.49" shape="952.10,897.63 954.87,902.10 956.70,905.20 958.69,908.19 961.94,912.29"/>
        <lane id=":313863797_2_1" index="1" disallow="tram rail_urban rail rail_electric rail_fast ship" speed="60.00" length="17.49" shape="954.78,895.89 957.49,900.25 959.27,903.30 961.21,906.22 964.39,910.23"/>
    </edge>
    <edge id=":314054793_0" function="internal">
        <lane id=":314054793_0_0" index="0" disallow="tram rail_urban rail rail_electric rail_fast ship" speed="60.00" length="7.70" shape="540.63,975.74 542.97,976.25 544.51,976.93 546.06,977.54 548.42,977.83"/>
        <lane id=":314054793_0_1" index="1" disallow="tram rail_urban rail rail_electric rail_fast ship" speed="60.00" length="7.70" shape="540.99,972.56 543.23,973.06 544.71,973.74 546.20,974.35 548.46,974.63"/>
        <lane id=":314054793_0_2" index="2" disallow="tram rail_urban rail rail_electric rail_fast ship" speed="60.00" length="7.70" shape="541.34,969.38 543.50,969.87 544.91,970.54 546.33,971.15 548.50,971.43"/>
        <lane id=":314054793_0_3" index="3" disallow="tram rail_urban rail rail_electric rail_fast ship" speed="60.00" length="7.70" shape="541.34,969.38 543.48,969.37 544.93,968.94 546.39,968.45 548.54,968.23"/>
    </edge>
    <edge id=":314056348_0" function="internal">
        <lane id=":314056348_0_0" index="0" disallow="tram rail_urban rail rail_electric rail_fast ship" speed="60.00" length="1.55" shape="278.97,883.86 279.09,883.86 279.16,883.87 279.24,883.89 279.35,883.92"/>
        <lane id=":314056348_0_1" index="1" disallow="tram rail_urban rail rail_electric rail_fast ship" speed="60.00" length="1.55" shape="279.09,880.66 279.43,880.68 279.67,880.70 279.90,880.75 280.23,880.84"/>
        <lane id=":314056348_0_2" index="2" disallow="tram rail_urban rail rail_electric rail_fast ship" speed="60.00" length="1.55" shape="279.20,877.46 279.78,877.49 280.17,877.53 280.55,877.61 281.11,877.76"/>
        <lane id=":314056348_0_3" index="3" disallow="tram rail_urban rail rail_electric rail_fast ship" speed="60.00" length="1.55" shape="279.32,874.27 280.12,874.30 280.67,874.36 281.21,874.47 281.98,874.69"/>
    </edge>
    <edge id=":314060705_0" function="internal">
        <lane id=":314060705_0_0" index="0" disallow="tram rail_urban rail rail_electric rail_fast ship" speed="70.00" length="34.79" shape="612.76,892.82 615.57,904.51 617.13,914.35 617.83,922.00 618.03,927.12"/>
    </edge>
    <edge id=":314060705_1" function="internal">
        <lane id=":314060705_1_0" index="0" disallow="tram rail_urban rail rail_electric rail_fast ship" speed="51.11" length="27.46" shape="612.76,892.82 620.01,919.07"/>
        <lane id=":314060705_1_1" index="1" disallow="tram rail_urban rail rail_electric rail_fast ship" speed="51.11" length="27.46" shape="615.84,891.94 623.13,918.34"/>
        <lane id=":314060705_1_2" index="2" disallow="tram rail_urban rail rail_electric rail_fast ship" speed="51.11" length="27.46" shape="618.92,891.07 626.24,917.62"/>
        <lane id=":314060705_1_3" index="3" disallow="tram rail_urban rail rail_electric rail_fast ship" speed="51.11" length="27.46" shape="621.99,890.19 629.36,916.89"/>
    </edge>
    <edge id=":314060709_0" function="internal">
        <lane id=":314060709_0_0" index="0" disallow="tram rail_urban rail rail_electric rail_fast ship" speed="60.00" length="37.04" shape="609.06,943.76 603.44,945.29 594.73,947.63 584.12,949.83 572.81,950.95"/>
    </edge>
    <edge id=":314060709_1" function="internal">
        <lane id=":314060709_1_0" index="0" disallow="tram rail_urban rail rail_electric rail_fast ship" speed="60.00" length="36.85" shape="609.67,947.26 599.74,948.60 591.28,949.69 582.81,950.50 572.81,950.95"/>
        <lane id=":314060709_1_1" index="1" disallow="tram rail_urban rail rail_electric rail_fast ship" speed="60.00" length="36.85" shape="610.07,950.43 600.18,951.77 591.80,952.88 583.39,953.68 573.43,954.13"/>
        <lane id=":314060709_1_2" index="2" disallow="tram rail_urban rail rail_electric rail_fast ship" speed="60.00" length="36.85" shape="610.48,953.61 600.62,954.95 592.31,956.06 583.98,956.87 574.05,957.32"/>
    </edge>
    <edge id=":314060710_0" function="internal">
        <lane id=":314060710_0_0" index="0" disallow="tram rail_urban rail rail_electric rail_fast ship" speed="60.00" length="11.98" shape="709.01,925.83 705.38,926.26 702.71,926.03 700.20,925.73 697.08,925.95"/>
    </edge>
    <edge id=":314060710_1" function="internal">
        <lane id=":314060710_1_0" index="0" disallow="tram rail_urban rail rail_electric rail_fast ship" speed="60.00" length="12.74" shape="709.69,928.96 705.99,929.51 703.41,929.49 700.81,929.46 697.11,929.96"/>
        <lane id=":314060710_1_1" index="1" disallow="tram rail_urban rail rail_electric rail_fast ship" speed="60.00" length="12.74" shape="710.37,932.08 706.66,932.63 704.07,932.62 701.47,932.59 697.75,933.09"/>
        <lane id=":314060710_1_2" index="2" disallow="tram rail_urban rail rail_electric rail_fast ship" speed="60.00" length="12.74" shape="711.06,935.21 707.34,935.76 704.73,935.75 702.12,935.72 698.39,936.23"/>
        <lane id=":314060710_1_3" index="3" disallow="tram rail_urban rail rail_electric rail_fast ship" speed="60.00" length="12.74" shape="711.74,938.34 708.01,938.89 705.39,938.88 702.78,938.86 699.03,939.36"/>
        <lane id=":314060710_1_4" index="4" disallow="tram rail_urban rail rail_electric rail_fast ship" speed="60.00" length="12.74" shape="712.43,941.46 708.68,942.02 706.06,942.01 703.43,941.99 699.67,942.50"/>
    </edge>
    <edge id=":314060727_0" function="internal">
        <lane id=":314060727_0_0" index="0" disallow="tram rail_urban rail rail_electric rail_fast ship" speed="41.11" length="12.67" shape="645.25,917.81 643.58,915.06 642.17,912.80 640.92,910.21 639.78,906.48"/>
    </edge>
    <edge id=":314060727_1" function="internal">
        <lane id=":314060727_1_0" index="0" disallow="tram rail_urban rail rail_electric rail_fast ship" speed="41.11" length="13.18" shape="641.58,919.39 640.69,915.64 640.53,912.98 640.44,910.29 639.78,906.48"/>
        <lane id=":314060727_1_1" index="1" disallow="tram rail_urban rail rail_electric rail_fast ship" speed="41.11" length="13.18" shape="638.53,920.35 637.62,916.54 637.45,913.83 637.35,911.11 636.67,907.24"/>
    </edge>
    <edge id=":314796108_0" function="internal">
        <lane id=":314796108_0_0" index="0" disallow="tram rail_urban rail rail_electric rail_fast ship" speed="32.45" length="14.16" shape="693.90,964.22 696.67,962.31 699.17,960.63 702.17,959.15 706.41,957.83"/>
    </edge>
    <edge id=":314796108_1" function="internal">
        <lane id=":314796108_1_0" index="0" disallow="tram rail_urban rail rail_electric rail_fast ship" speed="60.00" length="14.17" shape="692.21,959.90 706.41,957.83"/>
        <lane id=":314796108_1_1" index="1" disallow="tram rail_urban rail rail_electric rail_fast ship" speed="60.00" length="14.17" shape="691.63,956.75 705.65,954.72"/>
        <lane id=":314796108_1_2" index="2" disallow="tram rail_urban rail rail_electric rail_fast ship" speed="60.00" length="14.17" shape="691.06,953.60 704.90,951.61"/>
    </edge>
    <edge id=":314796109_0" function="internal">
        <lane id=":314796109_0_0" index="0" disallow="tram rail_urban rail rail_electric rail_fast ship" speed="12.18" length="10.42" shape="801.19,956.21 800.92,953.29 801.55,951.30 802.78,949.37 804.32,946.66"/>
    </edge>
    <edge id=":314796109_1" function="internal">
        <lane id=":314796109_1_0" index="0" speed="50.00" length="9.99" shape="801.19,956.21 800.78,953.29 800.82,951.23 800.83,949.19 800.30,946.29"/>
        <lane id=":314796109_1_1" index="1" speed="50.00" length="9.99" shape="801.19,956.21 800.30,953.42 799.28,951.64 798.22,949.88 797.21,947.12"/>
    </edge>
    <edge id=":314796110_0" function="internal">
        <lane id=":314796110_0_0" index="0" disallow="tram rail_urban rail rail_electric rail_fast ship" speed="20.23" length="12.48" shape="812.34,939.29 814.70,937.09 816.69,935.35 819.08,933.90 822.65,932.56"/>
    </edge>
    <edge id=":314796110_1" function="internal">
        <lane id=":314796110_1_0" index="0" disallow="tram rail_urban rail rail_electric rail_fast ship" speed="60.00" length="10.14" shape="812.32,932.63 815.38,932.39 817.53,932.77 819.67,933.06 822.65,932.56"/>
        <lane id=":314796110_1_1" index="1" disallow="tram rail_urban rail rail_electric rail_fast ship" speed="60.00" length="10.14" shape="811.68,929.49 814.65,929.28 816.75,929.67 818.82,929.97 821.72,929.50"/>