<routes>
        <route id="rse4235" edges="619523290#0 619523290#1 619523288 61645695 628341438#0 628341438#1" />
        <route id="rnw4235" edges="-628341438#1 -628341438#0 gneE6 619523287#0.17 619523287#1" />
        <route id="rnorth4219" edges="620377515  122089525 122089525.34 620377496 620377502#0 620377502#1 620377501#0" />
        <route id="rsouth4219" edges="620377506 620377506.61 28597169 620377494 547625725" />
        <route id="rsouth4220" edges="gneE10 gneE73 gneE79 gneE41" />
        <route id="rnorth4221" edges="-620463733 -620377511 -112543664 28573008 547793367 620377512 28573048 669665014 669665015#1 28594060#0 28594060#1 28594060#2 28594060#3 28594060#4" />
        <route id="rsouth4221" edges="-28594060#4 -28594060#3 -28594060#2 -28594060#1 -28594060#0 669665013 669665011 7635630#0 7635630#1 207149704#0 207149704#1 112543664 620377510 620463733" />
        <route id="rne4221" edges="-620463733 -620377511 -112543664 28573008 547793367 620377512 7637388#0 7637388#1 28573015#0 28573015#1 28573015#2 28573015#3 28573015#4 28573015#5 28573015#6" />
        <route id="rse4221" edges="-28594060#4 -28594060#3 -28594060#2 -28594060#1 -28594060#0 669665013 669665011 7635630#0 28572986 7637388#1 28573015#0 28573015#1 28573015#2 28573015#3 28573015#4 28573015#5 28573015#6" />
        <route id="rnw4221" edges="-28573015#6 -28573015#5 -28573015#4 -28573015#3 -28573015#2 -28573015#1 -28573015#0 28573025 28573025.46 28573025.65 28573048 669665014 669665015#1 28594060#0 28594060#1 28594060#2 28594060#3 28594060#4" />
        <route id="r4235e4219n" edges="619523290#0 619523290#1 619523288 619526570#0 619526570#1 620377514#1 619526569#1 619526568 619526567 gneE1 gneE1.31 620377502#0 620377502#1 620377501#0" />
        <route id="r4235n4219n" edges="-628341438#1 -628341438#0 -61645695 619526570#0 619526570#1 620377514#1 619526569#1 619526568 619526567 gneE1 gneE1.31 620377502#0 620377502#1 620377501#0" />
        <route id="r4235e4219s" edges="619523290#0 619523290#1 619523288 619526570#0 619526570#1 620377514#1 619526569#1 619526568 619526567 619526566 28597169 620377494 547625725" />
        <route id="r4235n4219s" edges="-628341438#1 -628341438#0 -61645695 619526570#0 619526570#1 620377514#1 619526569#1 619526568 619526567 619526566 28597169 620377494 547625725" />
        <route id="r4235e4220n" edges="619523290#0 619523290#1 619523288 619526570#0 619526570#1 620377514#1 619526569#1 619526568 619526567 619526566 122089528#1 620377517 gneE3 gneE44" />
        <route id="r4235n4220n" edges="-628341438#1 -628341438#0 -61645695 619526570#0 619526570#1 620377514#1 619526569#1 619526568 619526567 619526566 122089528#1 620377517 gneE3 gneE44" />
        <route id="r4235e4220s" edges="619523290#0 619523290#1 619523288 619526570#0 619526570#1 620377514#1 619526569#1 619526568 619526567 619526566 122089528#1 620377517 gneE74 gneE79 gneE41" />
        <route id="r4235n4220s" edges="-628341438#1 -628341438#0 -61645695 619526570#0 619526570#1 620377514#1 619526569#1 619526568 619526567 619526566 122089528#1 620377517 gneE74 gneE79 gneE41" />
        <route id="r4219s4220n" edges="620377506 gneE2 620377517 gneE3 gneE44" />
        <route id="r4219s4220s" edges="620377506 gneE2 620377517 gneE74 gneE79 gneE41" />
        <route id="r4219n4220n" edges="620377515  122089525 122089525.34 122089528#1 620377517 gneE3 gneE44" />
        <route id="r4219n4220s" edges="620377515  122089525 122089525.34 122089528#1 620377517 gneE74 gneE79 gneE41" />
        <route id="r4235e4221n" edges="619523290#0 619523290#1 619523288 619526570#0 619526570#1 620377514#1 619526569#1 619526568 619526567 619526566 122089528#1 620377517 gneE74 gneE72 620377518 28573047 669665014 669665015#1 28594060#0 28594060#1 28594060#2 28594060#3 28594060#4" />
        <route id="r4235n4221n" edges="-628341438#1 -628341438#0 -61645695 619526570#0 619526570#1 620377514#1 619526569#1 619526568 619526567 619526566 122089528#1 620377517 gneE74 gneE72 620377518 28573047 669665014 669665015#1 28594060#0 28594060#1 28594060#2 28594060#3 28594060#4" />
        <route id="r4235e4221s" edges="619523290#0 619523290#1 619523288 619526570#0 619526570#1 620377514#1 619526569#1 619526568 619526567 619526566 122089528#1 620377517 gneE74 gneE72 620377518 159605088 207149704#0 207149704#1 112543664 620377510 620463733" />
        <route id="r4235n4221s" edges="-628341438#1 -628341438#0 -61645695 619526570#0 619526570#1 620377514#1 619526569#1 619526568 619526567 619526566 122089528#1 620377517 gneE74 gneE72 620377518 159605088 207149704#0 207149704#1 112543664 620377510 620463733" />
        <route id="r4219s4221n" edges="620377506 gneE2 620377517 gneE74 gneE72 620377518 28573047 669665014 669665015#1 28594060#0 28594060#1 28594060#2 28594060#3 28594060#4" />
        <route id="r4219s4221s" edges="620377506 gneE2 620377517 gneE74 gneE72 620377518 159605088 207149704#0 207149704#1 112543664 620377510 620463733" />
        <route id="r4219n4221n" edges="620377515  122089525 122089525.34 122089528#1 620377517 gneE74 gneE72 620377518 28573047 669665014 669665015#1 28594060#0 28594060#1 28594060#2 28594060#3 28594060#4" />
        <route id="r4219n4221s" edges="620377515  122089525 122089525.34 122089528#1 620377517 gneE74 gneE72 620377518 159605088 207149704#0 207149704#1 112543664 620377510 620463733" />
        <route id="r4220s4221n" edges="gneE10 28641508 620377518 28573047 669665014 669665015#1 28594060#0 28594060#1 28594060#2 28594060#3 28594060#4" />
        <route id="r4220s4221s" edges="gneE10 28641508 620377518 159605088 207149704#0 207149704#1 112543664 620377510 620463733" />
        <route id="r4235e4221e" edges="619523290#0 619523290#1 619523288 619526570#0 619526570#1 620377514#1 619526569#1 619526568 619526567 619526566 122089528#1 620377517 gneE74 gneE72 620377518 159605088 7637388#0 7637388#1 28573015#0 28573015#1 28573015#2 28573015#3 28573015#4 28573015#5 28573015#6" />
        <route id="r4235n4221e" edges="-628341438#1 -628341438#0 -61645695 619526570#0 619526570#1 620377514#1 619526569#1 619526568 619526567 619526566 122089528#1 620377517 gneE74 gneE72 620377518 159605088 7637388#0 7637388#1 28573015#0 28573015#1 28573015#2 28573015#3 28573015#4 28573015#5 28573015#6" />
        <route id="r4219s4221e" edges="620377506 gneE2 620377517  gneE74 gneE72 620377518 159605088 7637388#0 7637388#1 28573015#0 28573015#1 28573015#2 28573015#3 28573015#4 28573015#5 28573015#6" />
        <route id="r4219n4221e" edges="620377515  122089525 122089525.34 122089528#1 620377517 gneE74 gneE72 620377518 159605088 7637388#0 7637388#1 28573015#0 28573015#1 28573015#2 28573015#3 28573015#4 28573015#5 28573015#6" />
        <route id="r4220s4221e" edges="gneE10 28641508 620377518 159605088 7637388#0 7637388#1 28573015#0 28573015#1 28573015#2 28573015#3 28573015#4 28573015#5 28573015#6" />
        <route id="r4221s4220n" edges="-28594060#4 -28594060#3 -28594060#2 -28594060#1 -28594060#0 669665013 669665011 7635630#0 7635630#1 624439627 547793365 158617319 gneE77 gneE76 gneE44" />
        <route id="r4221n4220n" edges="-620463733 -620377511 -112543664 28573008 28573013 547793365 158617319 gneE77 gneE76 gneE44" />
        <route id="r4221w4220n" edges="-28573015#6 -28573015#5 -28573015#4 -28573015#3 -28573015#2 -28573015#1 -28573015#0 28573025 28573025.46 28573025.65 624439627 547793365 158617319 gneE77 gneE76 gneE44" />
        <route id="r4221s4220s" edges="-28594060#4 -28594060#3 -28594060#2 -28594060#1 -28594060#0 669665013 669665011 7635630#0 7635630#1 624439627 547793365 158617319 620377513 gneE41" />
        <route id="r4221n4220s" edges="-620463733 -620377511 -112543664 28573008 28573013 547793365 158617319 620377513 gneE41" />
        <route id="r4221w4220s" edges="-28573015#6 -28573015#5 -28573015#4 -28573015#3 -28573015#2 -28573015#1 -28573015#0 28573025 28573025.46 28573025.65 624439627 547793365 158617319 620377513 gneE41" />
        <route id="r4220s4219n" edges="gneE10 gneE73 gneE75 619526565 547625727 620377496 620377502#0 620377502#1 620377501#0" />
        <route id="r4220n4219n" edges="gneE47 gneE78 gneE75 619526565 547625727 620377496 620377502#0 620377502#1 620377501#0" />
        <route id="r4221s4219n" edges="-28594060#4 -28594060#3 -28594060#2 -28594060#1 -28594060#0 669665013 669665011 7635630#0 7635630#1 624439627 547793365 158617319 gneE77 gneE75 619526565 547625727 620377496 620377502#0 620377502#1 620377501#0" />
        <route id="r4221n4219n" edges="-620463733 -620377511 -112543664 28573008 28573013 547793365 158617319 gneE77 gneE75 619526565 547625727 620377496 620377502#0 620377502#1 620377501#0" />
        <route id="r4221w4219n" edges="-28573015#6 -28573015#5 -28573015#4 -28573015#3 -28573015#2 -28573015#1 -28573015#0 28573025 28573025.46 28573025.65 624439627 547793365 158617319 gneE77 gneE75 619526565 547625727 620377496 620377502#0 620377502#1 620377501#0" />
        <route id="r4220s4219s" edges="gneE10 gneE73 gneE75 619526565 28592678 620377494 547625725" />
        <route id="r4220n4219s" edges="gneE47 gneE78 gneE75 619526565 28592678 620377494 547625725" />
        <route id="r4221s4219s" edges="-28594060#4 -28594060#3 -28594060#2 -28594060#1 -28594060#0 669665013 669665011 7635630#0 7635630#1 624439627 547793365 158617319 gneE77 gneE75 619526565 28592678 620377494 547625725" />
        <route id="r4221n4219s" edges="-620463733 -620377511 -112543664 28573008 28573013 547793365 158617319 gneE77 gneE75 619526565 28592678 620377494 547625725" />
        <route id="r4221w4219s" edges="-28573015#6 -28573015#5 -28573015#4 -28573015#3 -28573015#2 -28573015#1 -28573015#0 28573025 28573025.46 28573025.65 624439627 547793365 158617319 gneE77 gneE75 619526565 28592678 620377494 547625725" />
        <route id="r4219s4235s" edges="620377506 620377506.61 122089526 122089583#0 122089583#1 122089583#1-AddedOffRampEdge 620377490 628341438#0 628341438#1" />
        <route id="r4219n4235s" edges="620377515 28592666 122089583#0 122089583#1 122089583#1-AddedOffRampEdge 620377490 628341438#0 628341438#1" />
        <route id="r4221s4235s" edges="-28594060#4 -28594060#3 -28594060#2 -28594060#1 -28594060#0 669665013 669665011 7635630#0 7635630#1 624439627 547793365 158617319 gneE77 gneE75 619526565 547625727 122089526 122089583#0 122089583#1 122089583#1-AddedOffRampEdge 620377490 628341438#0 628341438#1" />
        <route id="r4221n4235s" edges="-620463733 -620377511 -112543664 28573008 28573013 547793365 158617319 gneE77 gneE75 619526565 547625727 122089526 122089583#0 122089583#1 122089583#1-AddedOffRampEdge 620377490 628341438#0 628341438#1" />
        <route id="r4221w4235s" edges="-28573015#6 -28573015#5 -28573015#4 -28573015#3 -28573015#2 -28573015#1 -28573015#0 28573025 28573025.46 28573025.65 624439627 547793365 158617319 gneE77 gneE75 619526565 547625727 122089526 122089583#0 122089583#1 122089583#1-AddedOffRampEdge 620377490 628341438#0 628341438#1" />
        <route id="r4220s4235s" edges="gneE10 gneE73 gneE75 619526565 547625727 122089526 122089583#0 122089583#1 122089583#1-AddedOffRampEdge 620377490 628341438#0 628341438#1" />
        <route id="r4220n4235s" edges="gneE47 gneE78 gneE75 619526565 547625727 122089526 122089583#0 122089583#1 122089583#1-AddedOffRampEdge 620377490 628341438#0 628341438#1" />
        <route id="r4219s4235w" edges="620377506 620377506.61 122089526 122089583#0 122089583#1 122089583#1-AddedOffRampEdge 619523286 619523287#0 619523287#0.17 619523287#1" />
        <route id="r4219n4235w" edges="620377515 28592666 122089583#0 122089583#1 122089583#1-AddedOffRampEdge 619523286 619523287#0 619523287#0.17 619523287#1" />
        <route id="r4221s4235w" edges="-28594060#4 -28594060#3 -28594060#2 -28594060#1 -28594060#0 669665013 669665011 7635630#0 7635630#1 624439627 547793365 158617319 gneE77 gneE75 619526565 547625727 122089526 122089583#0 122089583#1 122089583#1-AddedOffRampEdge 619523286 619523287#0 619523287#0.17 619523287#1" />
        <route id="r4221n4235w" edges="-620463733 -620377511 -112543664 28573008 28573013 547793365 158617319 gneE77 gneE75 619526565 547625727 122089526 122089583#0 122089583#1 122089583#1-AddedOffRampEdge 619523286 619523287#0 619523287#0.17 619523287#1" />
        <route id="r4221w4235w" edges="-28573015#6 -28573015#5 -28573015#4 -28573015#3 -28573015#2 -28573015#1 -28573015#0 28573025 28573025.46 28573025.65 624439627 547793365 158617319 gneE77 gneE75 619526565 547625727 122089526 122089583#0 122089583#1 122089583#1-AddedOffRampEdge 619523286 619523287#0 619523287#0.17 619523287#1" />
        <route id="r4220s4235w" edges="gneE10 gneE73 gneE75 619526565 547625727 122089526 122089583#0 122089583#1 122089583#1-AddedOffRampEdge 619523286 619523287#0 619523287#0.17 619523287#1" />
        <route id="r4220n4235w" edges="gneE47 gneE78 gneE75 619526565 547625727 122089526 122089583#0 122089583#1 122089583#1-AddedOffRampEdge 619523286 619523287#0 619523287#0.17 619523287#1" />
    <vehicle id="nw4235_0" route="rnw4235" depart="0" />
    <vehicle id="4235e4219n_1" route="r4235e4219n" depart="0" />
    <vehicle id="4235e4219s_2" route="r4235e4219s" depart="0" />
    <vehicle id="se4235_3" route="rse4235" depart="1" />
    <vehicle id="4235e4221n_4" route="r4235e4221n" depart="1" />
    <vehicle id="se4235_5" route="rse4235" depart="2" />
    <vehicle id="north4219_6" route="rnorth4219" depart="2" />
    <vehicle id="north4221_7" route="rnorth4221" depart="2" />
    <vehicle id="north4219_8" route="rnorth4219" depart="3" />
    <vehicle id="south4221_9" route="rsouth4221" depart="3" />
    <vehicle id="nw4235_10" route="rnw4235" depart="4" />
    <vehicle id="4235e4219n_11" route="r4235e4219n" depart="4" />
    <vehicle id="4235e4221n_12" route="r4235e4221n" depart="4" />
    <vehicle id="4235n4221e_13" route="r4235n4221e" depart="5" />
    <vehicle id="south4220_14" route="rsouth4220" depart="6" />
    <vehicle id="se4235_15" route="rse4235" depart="7" />
    <vehicle id="4235e4219s_16" route="r4235e4219s" depart="7" />
    <vehicle id="4235e4221e_17" route="r4235e4221e" depart="7" />
    <vehicle id="south4219_18" route="rsouth4219" depart="8" />
    <vehicle id="north4221_19" route="rnorth4221" depart="9" />
    <vehicle id="4219s4221e_20" route="r4219s4221e" depart="9" />
    <vehicle id="4235e4220n_21" route="r4235e4220n" depart="10" />
    <vehicle id="se4235_22" route="rse4235" depart="11" />
    <vehicle id="4235e4221n_23" route="r4235e4221n" depart="12" />
    <vehicle id="north4219_24" route="rnorth4219" depart="13" />
    <vehicle id="north4221_25" route="rnorth4221" depart="13" />
    <vehicle id="4235e4219n_26" route="r4235e4219n" depart="13" />
    <vehicle id="4235n4219n_27" route="r4235n4219n" depart="13" />
    <vehicle id="north4219_28" route="rnorth4219" depart="15" />
    <vehicle id="4235e4219n_29" route="r4235e4219n" depart="15" />
    <vehicle id="4235e4221n_30" route="r4235e4221n" depart="16" />
    <vehicle id="4219n4235w_31" route="r4219n4235w" depart="16" />
    <vehicle id="se4235_32" route="rse4235" depart="17" />
    <vehicle id="4235e4219n_33" route="r4235e4219n" depart="17" />
    <vehicle id="4235e4221e_34" route="r4235e4221e" depart="17" />
    <vehicle id="4219n4221e_35" route="r4219n4221e" depart="17" />
    <vehicle id="4220s4219n_36" route="r4220s4219n" depart="17" />
    <vehicle id="4221n4219n_37" route="r4221n4219n" depart="17" />
    <vehicle id="north4219_38" route="rnorth4219" depart="18" />
    <vehicle id="4235e4219n_39" route="r4235e4219n" depart="19" />
    <vehicle id="4221n4219s_40" route="r4221n4219s" depart="20" />
    <vehicle id="nw4235_41" route="rnw4235" depart="21" />
    <vehicle id="4235e4219n_42" route="r4235e4219n" depart="21" />
    <vehicle id="4235e4219s_43" route="r4235e4219s" depart="21" />
    <vehicle id="4235e4221n_44" route="r4235e4221n" depart="21" />
    <vehicle id="4220s4219n_45" route="r4220s4219n" depart="21" />
    <vehicle id="south4219_46" route="rsouth4219" depart="22" />
    <vehicle id="4235e4219n_47" route="r4235e4219n" depart="22" />
    <vehicle id="4235e4221n_48" route="r4235e4221n" depart="22" />
    <vehicle id="4235e4221e_49" route="r4235e4221e" depart="22" />
    <vehicle id="north4219_50" route="rnorth4219" depart="23" />
    <vehicle id="se4235_51" route="rse4235" depart="24" />
    <vehicle id="nw4235_52" route="rnw4235" depart="24" />
    <vehicle id="4235e4219n_53" route="r4235e4219n" depart="24" />
    <vehicle id="north4219_54" route="rnorth4219" depart="25" />
    <vehicle id="south4220_55" route="rsouth4220" depart="25" />
    <vehicle id="4235e4219n_56" route="r4235e4219n" depart="25" />
    <vehicle id="4221n4219n_57" route="r4221n4219n" depart="25" />
    <vehicle id="4219s4235w_58" route="r4219s4235w" depart="25" />
    <vehicle id="4221n4235w_59" route="r4221n4235w" depart="25" />
    <vehicle id="north4221_60" route="rnorth4221" depart="26" />
    <vehicle id="4220s4235w_61" route="r4220s4235w" depart="26" />
    <vehicle id="north4221_62" route="rnorth4221" depart="27" />
    <vehicle id="4235e4219n_63" route="r4235e4219n" depart="27" />
    <vehicle id="4220s4235w_64" route="r4220s4235w" depart="27" />
    <vehicle id="nw4235_65" route="rnw4235" depart="28" />
    <vehicle id="north4219_66" route="rnorth4219" depart="28" />
    <vehicle id="4235e4221e_67" route="r4235e4221e" depart="28" />
    <vehicle id="north4221_68" route="rnorth4221" depart="31" />
    <vehicle id="4219n4221e_69" route="r4219n4221e" depart="31" />
    <vehicle id="4220s4219n_70" route="r4220s4219n" depart="31" />
    <vehicle id="4221s4219n_71" route="r4221s4219n" depart="31" />
    <vehicle id="north4221_72" route="rnorth4221" depart="32" />
    <vehicle id="4235e4219n_73" route="r4235e4219n" depart="32" />
    <vehicle id="south4219_74" route="rsouth4219" depart="33" />
    <vehicle id="4235e4219n_75" route="r4235e4219n" depart="33" />
    <vehicle id="south4219_76" route="rsouth4219" depart="35" />
    <vehicle id="north4219_77" route="rnorth4219" depart="36" />
    <vehicle id="4235e4219n_78" route="r4235e4219n" depart="36" />
    <vehicle id="4235e4219s_79" route="r4235e4219s" depart="36" />
    <vehicle id="4235e4220n_80" route="r4235e4220n" depart="36" />
    <vehicle id="4235e4219n_81" route="r4235e4219n" depart="37" />
    <vehicle id="4221s4220n_82" route="r4221s4220n" depart="37" />
    <vehicle id="4221w4235w_83" route="r4221w4235w" depart="37" />
    <vehicle id="south4219_84" route="rsouth4219" depart="38" />
    <vehicle id="north4221_85" route="rnorth4221" depart="38" />
    <vehicle id="4235e4219n_86" route="r4235e4219n" depart="38" />
    <vehicle id="4235e4221n_87" route="r4235e4221n" depart="38" />
    <vehicle id="4221n4220s_88" route="r4221n4220s" depart="38" />
    <vehicle id="north4221_89" route="rnorth4221" depart="39" />
    <vehicle id="4235e4221s_90" route="r4235e4221s" depart="39" />
    <vehicle id="north4219_91" route="rnorth4219" depart="40" />
    <vehicle id="4235e4219n_92" route="r4235e4219n" depart="40" />
    <vehicle id="nw4235_93" route="rnw4235" depart="41" />
    <vehicle id="se4221_94" route="rse4221" depart="41" />
    <vehicle id="4219s4235w_95" route="r4219s4235w" depart="41" />
    <vehicle id="south4219_96" route="rsouth4219" depart="42" />
    <vehicle id="4235e4219n_97" route="r4235e4219n" depart="42" />
    <vehicle id="4235n4219n_98" route="r4235n4219n" depart="42" />
    <vehicle id="4235e4221n_99" route="r4235e4221n" depart="42" />
    <vehicle id="4220s4219n_100" route="r4220s4219n" depart="42" />
    <vehicle id="south4220_101" route="rsouth4220" depart="43" />
    <vehicle id="4235e4219n_102" route="r4235e4219n" depart="43" />
    <vehicle id="4220s4219n_103" route="r4220s4219n" depart="43" />
    <vehicle id="north4219_104" route="rnorth4219" depart="44" />
    <vehicle id="4235e4219n_105" route="r4235e4219n" depart="44" />
    <vehicle id="4235e4221e_106" route="r4235e4221e" depart="44" />
    <vehicle id="4221w4220s_107" route="r4221w4220s" depart="44" />
    <vehicle id="se4235_108" route="rse4235" depart="45" />
    <vehicle id="south4220_109" route="rsouth4220" depart="45" />
    <vehicle id="4235e4219n_110" route="r4235e4219n" depart="45" />
    <vehicle id="north4221_111" route="rnorth4221" depart="46" />
    <vehicle id="4221s4235w_112" route="r4221s4235w" depart="47" />
    <vehicle id="4220s4221n_113" route="r4220s4221n" depart="49" />
    <vehicle id="4220s4219n_114" route="r4220s4219n" depart="49" />
    <vehicle id="4221n4219n_115" route="r4221n4219n" depart="49" />
    <vehicle id="south4220_116" route="rsouth4220" depart="51" />
    <vehicle id="north4221_117" route="rnorth4221" depart="51" />
    <vehicle id="south4221_118" route="rsouth4221" depart="51" />
    <vehicle id="4235e4221e_119" route="r4235e4221e" depart="51" />
    <vehicle id="4235n4221e_120" route="r4235n4221e" depart="52" />
    <vehicle id="4220s4219n_121" route="r4220s4219n" depart="52" />
    <vehicle id="south4221_122" route="rsouth4221" depart="54" />
    <vehicle id="nw4235_123" route="rnw4235" depart="55" />
    <vehicle id="4235e4219n_124" route="r4235e4219n" depart="55" />
    <vehicle id="4235e4219s_125" route="r4235e4219s" depart="55" />
    <vehicle id="south4220_126" route="rsouth4220" depart="56" />
    <vehicle id="north4221_127" route="rnorth4221" depart="56" />
    <vehicle id="4235e4219n_128" route="r4235e4219n" depart="56" />
    <vehicle id="4235e4221n_129" route="r4235e4221n" depart="56" />
    <vehicle id="south4221_130" route="rsouth4221" depart="57" />
    <vehicle id="se4235_131" route="rse4235" depart="59" />
    <vehicle id="nw4235_132" route="rnw4235" depart="59" />
    <vehicle id="south4219_133" route="rsouth4219" depart="59" />
    <vehicle id="north4221_134" route="rnorth4221" depart="59" />
    <vehicle id="se4235_135" route="rse4235" depart="60" />
    <vehicle id="4221n4219s_136" route="r4221n4219s" depart="60" />
    <vehicle id="4235e4219n_137" route="r4235e4219n" depart="61" />
    <vehicle id="4235e4219s_138" route="r4235e4219s" depart="61" />
    <vehicle id="4235e4220n_139" route="r4235e4220n" depart="61" />
    <vehicle id="4220s4235w_140" route="r4220s4235w" depart="61" />
    <vehicle id="south4220_141" route="rsouth4220" depart="62" />
    <vehicle id="north4221_142" route="rnorth4221" depart="63" />
    <vehicle id="4235e4219n_143" route="r4235e4219n" depart="63" />
    <vehicle id="4235e4219n_144" route="r4235e4219n" depart="64" />
    <vehicle id="4235e4221n_145" route="r4235e4221n" depart="64" />
    <vehicle id="4221s4235w_146" route="r4221s4235w" depart="64" />
    <vehicle id="se4235_147" route="rse4235" depart="65" />
    <vehicle id="south4220_148" route="rsouth4220" depart="65" />
    <vehicle id="4220s4221e_149" route="r4220s4221e" depart="65" />
    <vehicle id="south4219_150" route="rsouth4219" depart="66" />
    <vehicle id="4235e4219n_151" route="r4235e4219n" depart="66" />
    <vehicle id="south4219_152" route="rsouth4219" depart="67" />
    <vehicle id="se4221_153" route="rse4221" depart="67" />
    <vehicle id="4235e4219s_154" route="r4235e4219s" depart="67" />
    <vehicle id="4220s4219n_155" route="r4220s4219n" depart="67" />
    <vehicle id="south4219_156" route="rsouth4219" depart="70" />
    <vehicle id="south4220_157" route="rsouth4220" depart="70" />
    <vehicle id="4235e4219n_158" route="r4235e4219n" depart="70" />
    <vehicle id="4221s4220s_159" route="r4221s4220s" depart="70" />
    <vehicle id="4221n4219n_160" route="r4221n4219n" depart="70" />
    <vehicle id="4219s4235w_161" route="r4219s4235w" depart="70" />
    <vehicle id="4235e4219n_162" route="r4235e4219n" depart="71" />
    <vehicle id="4235e4219n_163" route="r4235e4219n" depart="72" />
    <vehicle id="4235e4219s_164" route="r4235e4219s" depart="72" />
    <vehicle id="4221n4219n_165" route="r4221n4219n" depart="73" />
    <vehicle id="nw4235_166" route="rnw4235" depart="74" />
    <vehicle id="4221n4219s_167" route="r4221n4219s" depart="74" />
    <vehicle id="north4219_168" route="rnorth4219" depart="75" />
    <vehicle id="4221n4219n_169" route="r4221n4219n" depart="75" />
    <vehicle id="north4221_170" route="rnorth4221" depart="76" />
    <vehicle id="4235e4219n_171" route="r4235e4219n" depart="76" />
    <vehicle id="north4219_172" route="rnorth4219" depart="78" />
    <vehicle id="south4219_173" route="rsouth4219" depart="78" />
    <vehicle id="4235e4219n_174" route="r4235e4219n" depart="78" />
    <vehicle id="south4220_175" route="rsouth4220" depart="81" />
    <vehicle id="north4221_176" route="rnorth4221" depart="81" />
    <vehicle id="4235e4221e_177" route="r4235e4221e" depart="81" />
    <vehicle id="south4221_178" route="rsouth4221" depart="82" />
    <vehicle id="4235e4221e_179" route="r4235e4221e" depart="82" />
    <vehicle id="4219s4235w_180" route="r4219s4235w" depart="82" />
    <vehicle id="north4219_181" route="rnorth4219" depart="83" />
    <vehicle id="4221n4220s_182" route="r4221n4220s" depart="83" />
    <vehicle id="4221n4235w_183" route="r4221n4235w" depart="83" />
    <vehicle id="se4235_184" route="rse4235" depart="84" />
    <vehicle id="4235e4221n_185" route="r4235e4221n" depart="84" />
    <vehicle id="south4220_186" route="rsouth4220" depart="85" />
    <vehicle id="4235e4219n_187" route="r4235e4219n" depart="85" />
    <vehicle id="4235e4221n_188" route="r4235e4221n" depart="85" />
    <vehicle id="nw4235_189" route="rnw4235" depart="86" />
    <vehicle id="north4221_190" route="rnorth4221" depart="86" />
    <vehicle id="4235e4221e_191" route="r4235e4221e" depart="86" />
    <vehicle id="4235e4219n_192" route="r4235e4219n" depart="87" />
    <vehicle id="south4221_193" route="rsouth4221" depart="88" />
    <vehicle id="4235e4219n_194" route="r4235e4219n" depart="88" />
    <vehicle id="south4219_195" route="rsouth4219" depart="89" />
    <vehicle id="south4220_196" route="rsouth4220" depart="89" />
    <vehicle id="north4221_197" route="rnorth4221" depart="89" />
    <vehicle id="4235e4219n_198" route="r4235e4219n" depart="90" />
    <vehicle id="4235e4221n_199" route="r4235e4221n" depart="90" />
    <vehicle id="4220s4219n_200" route="r4220s4219n" depart="90" />
    <vehicle id="south4220_201" route="rsouth4220" depart="91" />
    <vehicle id="north4221_202" route="rnorth4221" depart="91" />
    <vehicle id="4235e4221n_203" route="r4235e4221n" depart="92" />
    <vehicle id="se4235_204" route="rse4235" depart="93" />
    <vehicle id="south4220_205" route="rsouth4220" depart="93" />
    <vehicle id="north4221_206" route="rnorth4221" depart="94" />
    <vehicle id="south4221_207" route="rsouth4221" depart="94" />
    <vehicle id="4235e4219n_208" route="r4235e4219n" depart="94" />
    <vehicle id="north4219_209" route="rnorth4219" depart="95" />
    <vehicle id="south4219_210" route="rsouth4219" depart="96" />
    <vehicle id="4235e4221n_211" route="r4235e4221n" depart="96" />
    <vehicle id="4220s4221n_212" route="r4220s4221n" depart="97" />
    <vehicle id="se4235_213" route="rse4235" depart="98" />
    <vehicle id="4235e4219n_214" route="r4235e4219n" depart="98" />
    <vehicle id="nw4235_215" route="rnw4235" depart="99" />
    <vehicle id="4235e4219n_216" route="r4235e4219n" depart="99" />
    <vehicle id="4235e4221n_217" route="r4235e4221n" depart="99" />
    <vehicle id="nw4235_218" route="rnw4235" depart="100" />
    <vehicle id="north4219_219" route="rnorth4219" depart="100" />
    <vehicle id="south4219_220" route="rsouth4219" depart="100" />
    <vehicle id="south4220_221" route="rsouth4220" depart="100" />
    <vehicle id="south4221_222" route="rsouth4221" depart="100" />
    <vehicle id="4235e4219n_223" route="r4235e4219n" depart="100" />
    <vehicle id="4219n4221e_224" route="r4219n4221e" depart="100" />
    <vehicle id="se4235_225" route="rse4235" depart="101" />
    <vehicle id="north4219_226" route="rnorth4219" depart="101" />
    <vehicle id="4235e4219s_227" route="r4235e4219s" depart="101" />
    <vehicle id="4235e4221e_228" route="r4235e4221e" depart="101" />
    <vehicle id="north4221_229" route="rnorth4221" depart="102" />
    <vehicle id="south4221_230" route="rsouth4221" depart="102" />
    <vehicle id="4235e4219n_231" route="r4235e4219n" depart="102" />
    <vehicle id="4235e4221n_232" route="r4235e4221n" depart="102" />
    <vehicle id="4220s4235w_233" route="r4220s4235w" depart="103" />
    <vehicle id="north4221_234" route="rnorth4221" depart="104" />
    <vehicle id="south4221_235" route="rsouth4221" depart="104" />
    <vehicle id="4235e4219n_236" route="r4235e4219n" depart="104" />
    <vehicle id="north4221_237" route="rnorth4221" depart="105" />
    <vehicle id="north4219_238" route="rnorth4219" depart="106" />
    <vehicle id="north4221_239" route="rnorth4221" depart="107" />
    <vehicle id="4235e4219n_240" route="r4235e4219n" depart="107" />
    <vehicle id="4220s4219n_241" route="r4220s4219n" depart="107" />
    <vehicle id="4221n4219n_242" route="r4221n4219n" depart="107" />
    <vehicle id="north4219_243" route="rnorth4219" depart="108" />
    <vehicle id="4220n4235w_244" route="r4220n4235w" depart="108" />
    <vehicle id="south4219_245" route="rsouth4219" depart="109" />
    <vehicle id="4235e4219n_246" route="r4235e4219n" depart="109" />
    <vehicle id="4235e4219s_247" route="r4235e4219s" depart="109" />
    <vehicle id="4235e4221n_248" route="r4235e4221n" depart="109" />
    <vehicle id="4235e4221e_249" route="r4235e4221e" depart="109" />
    <vehicle id="4235e4219n_250" route="r4235e4219n" depart="110" />
    <vehicle id="4220s4219s_251" route="r4220s4219s" depart="110" />
    <vehicle id="nw4235_252" route="rnw4235" depart="111" />
    <vehicle id="north4219_253" route="rnorth4219" depart="111" />
    <vehicle id="4235e4219n_254" route="r4235e4219n" depart="111" />
    <vehicle id="south4219_255" route="rsouth4219" depart="112" />
    <vehicle id="north4221_256" route="rnorth4221" depart="112" />
    <vehicle id="4235e4221e_257" route="r4235e4221e" depart="113" />