<?xml version="1.0" encoding="UTF-8"?>

<!-- generated on 04/17/20 13:38:34 by Eclipse SUMO duarouter Version 1.5.0
<configuration xmlns:xsi="http://www.w3.org/2001/XMLSchema-instance" xsi:noNamespaceSchemaLocation="http://sumo.dlr.de/xsd/duarouterConfiguration.xsd">

    <input>
        <net-file value="osm.net.xml"/>
        <route-files value="trips.trips.xml"/>
    </input>

    <output>
        <output-file value="osm.rou.xml"/>
        <alternatives-output value="osm.rou.alt.xml"/>
    </output>

    <time>
        <begin value="0"/>
        <end value="3600"/>
    </time>

    <report>
        <no-warnings value="true"/>
        <ignore-errors value="true"/>
        <no-step-log value="true"/>
    </report>

</configuration>
-->

<routes xmlns:xsi="http://www.w3.org/2001/XMLSchema-instance" xsi:noNamespaceSchemaLocation="http://sumo.dlr.de/xsd/routes_file.xsd">
    <vehicle id="4" depart="4.00">
        <route edges="-628341438#1 -628341438#0 gneE6"/>
    </vehicle>
    <vehicle id="5" depart="5.00">
        <route edges="-28573015#6 -28573015#5 -28573015#4 -28573015#3 -28573015#2 -28573015#1 -28573015#0 28573025 28573025.46 28573025.65 28573048 669665014 669665015#1 28594060#0 28594060#1"/>
    </vehicle>
    <vehicle id="7" depart="7.00">
        <route edges="-620377511 -112543664 28573008 28573013 547793365 158617319 619526563 619526564#1 619526565 547625727 620377496 620377502#0 620377502#1 620377501#0"/>
    </vehicle>
    <vehicle id="8" depart="8.00">
        <route edges="-28573015#6 -28573015#5 -28573015#4 -28573015#3 -28573015#2 -28573015#1 -28573015#0 28573025 28573025.46 gneE5 207149704#1 112543664"/>
    </vehicle>
    <vehicle id="10" depart="10.00">
        <route edges="-28594060#3 -28594060#2 -28594060#1 -28594060#0 669665013 669665011 7635630#0 7635630#1 624439627 547793365 158617319 619526563 619526564#1 619526565 28592678 620377494 547625725"/>
    </vehicle>
    <vehicle id="11" depart="11.00">
        <route edges="547793365 158617319 619526563 619526564#1 619526565 547625727 122089526 122089583#0"/>
    </vehicle>
    <vehicle id="12" depart="12.00">
        <route edges="-28573015#5 -28573015#4 -28573015#3 -28573015#2 -28573015#1 -28573015#0 28573025 28573025.46 28573025.65 624439627 547793365 158617319 619526563 619526564#1 619526565 547625727 122089526 122089583#0 122089583#1 122089583#1-AddedOffRampEdge 619523286 619523287#0 619523287#0.17 619523287#1"/>
    </vehicle>
    <vehicle id="17" depart="17.00">
        <route edges="620377506 gneE2 620377517 620377517.54 624439645 620377518 28573047 669665014 669665015#1 28594060#0 28594060#1 28594060#2 28594060#3 28594060#4"/>
    </vehicle>
    <vehicle id="22" depart="22.00">
        <route edges="-620463733 -620377511 -112543664 28573008 547793367 620377512 7637388#0 7637388#1 28573015#0 28573015#1 28573015#2 28573015#3 28573015#4 28573015#5 28573015#6"/>
    </vehicle>
    <vehicle id="27" depart="27.00">
        <route edges="-28573015#6 -28573015#5 -28573015#4 -28573015#3 -28573015#2 -28573015#1 -28573015#0 28573025"/>
    </vehicle>
    <vehicle id="29" depart="29.00">
        <route edges="-28594060#4 -28594060#3 -28594060#2 -28594060#1 -28594060#0 669665013 669665011 7635630#0 7635630#1 624439627 547793365 158617319 619526563 619526564#1 619526565 547625727 620377496 620377502#0 620377502#1 620377501#0"/>
    </vehicle>
    <vehicle id="30" depart="30.00">
        <route edges="-28573015#6 -28573015#5 -28573015#4 -28573015#3 -28573015#2 -28573015#1 -28573015#0 28573025 28573025.46 28573025.65 624439627 547793365 158617319 619526563 619526564#1 619526565 547625727 620377496 620377502#0 620377502#1 620377501#0"/>
    </vehicle>
    <vehicle id="32" depart="32.00">
        <route edges="-28594060#1 -28594060#0 669665013 669665011 7635630#0 7635630#1 624439627 547793365 158617319 619526563 619526564#1 619526565 547625727 122089526 122089583#0 122089583#1 122089583#1-AddedOffRampEdge 619523286 619523287#0 619523287#0.17 619523287#1"/>
    </vehicle>
    <vehicle id="34" depart="34.00">
        <route edges="-628341438#1 -628341438#0 -61645695 619526570#0 619526570#1 620377514#1 619526569#1 619526568 619526567 gneE1"/>
    </vehicle>
    <vehicle id="36" depart="36.00">
        <route edges="-628341438#1 -628341438#0 -61645695 619526570#0 619526570#1 620377514#1 619526569#1 619526568 619526567 gneE1 gneE1.31"/>
    </vehicle>
    <vehicle id="39" depart="39.00">
        <route edges="619523290#0 619523290#1 619523288 619526570#0 619526570#1 620377514#1 619526569#1 619526568 619526567 619526566 122089528#1 620377517 620377517.54 624439645 620377518 159605088 207149704#0 207149704#1 112543664 620377510 620463733"/>
    </vehicle>
    <vehicle id="41" depart="41.00">
        <route edges="-28573015#6 -28573015#5 -28573015#4 -28573015#3 -28573015#2 -28573015#1 -28573015#0 28573025 28573025.46 28573025.65 624439627 547793365 158617319 619526563 619526564#1 619526565 547625727"/>
    </vehicle>
    <vehicle id="45" depart="45.00">
        <route edges="619523290#1 619523288 61645695 628341438#0 628341438#1"/>
    </vehicle>
    <vehicle id="48" depart="48.00">
        <route edges="624439645 620377518 159605088 7637388#0 7637388#1 28573015#0 28573015#1 28573015#2 28573015#3 28573015#4 28573015#5 28573015#6"/>
    </vehicle>
    <vehicle id="52" depart="52.00">
        <route edges="-28573015#1 -28573015#0 28573025 28573025.46 28573025.65 624439627 547793365 158617319 619526563 619526564#1 619526565 28592678 620377494"/>
    </vehicle>
    <vehicle id="54" depart="54.00">
        <route edges="620377506 gneE2 620377517 620377517.54 624439645 620377518 159605088 207149704#0 207149704#1 112543664 620377510"/>
    </vehicle>
    <vehicle id="55" depart="55.00">
        <route edges="-28594060#4 -28594060#3 -28594060#2 -28594060#1 -28594060#0 669665013 669665011 7635630#0 7635630#1 624439627 547793365 158617319 619526563 619526564#1 619526565 28592678 620377494 547625725"/>
    </vehicle>
    <vehicle id="56" depart="56.00">
        <route edges="619526567 619526566 122089528#1 620377517 620377517.54 624439645 620377518 28573047 669665014 669665015#1"/>
    </vehicle>
    <vehicle id="59" depart="59.00">
        <route edges="-28594060#4 -28594060#3 -28594060#2 -28594060#1 -28594060#0 669665013 669665011 7635630#0 28572986 7637388#1 28573015#0 28573015#1 28573015#2 28573015#3 28573015#4 28573015#5"/>
    </vehicle>
    <vehicle id="60" depart="60.00">
        <route edges="-112543664"/>
    </vehicle>
    <vehicle id="63" depart="63.00">
        <route edges="-28573015#5 -28573015#4 -28573015#3 -28573015#2 -28573015#1 -28573015#0 28573025 28573025.46 28573025.65 624439627 547793365 158617319 619526563 619526564#1 619526565 547625727 122089526 122089583#0 122089583#1 122089583#1-AddedOffRampEdge 620377490 628341438#0 628341438#1"/>
    </vehicle>
    <vehicle id="64" depart="64.00">
        <route edges="28573025.65 28573048 669665014 669665015#1 28594060#0 28594060#1 28594060#2 28594060#3 28594060#4"/>
    </vehicle>
    <vehicle id="68" depart="68.00">
        <route edges="620377517 620377517.54 624439645 620377518 159605088 7637388#0 7637388#1 28573015#0 28573015#1 28573015#2 28573015#3 28573015#4 28573015#5 28573015#6"/>
    </vehicle>
    <vehicle id="69" depart="69.00">
        <route edges="-28573015#6 -28573015#5 -28573015#4 -28573015#3 -28573015#2 -28573015#1 -28573015#0 28573025 28573025.46 28573025.65 28573048 669665014 669665015#1"/>
    </vehicle>
    <vehicle id="71" depart="71.00">
        <route edges="620377515 122089525 122089525.34 122089528#1 620377517 620377517.54 624439645 620377518 28573047 669665014 669665015#1 28594060#0 28594060#1 28594060#2 28594060#3 28594060#4"/>
    </vehicle>
    <vehicle id="74" depart="74.00">
        <route edges="619526569#1 619526568 619526567 619526566 122089528#1 620377517 620377517.54 624439645 620377518 159605088 7637388#0 7637388#1 28573015#0 28573015#1 28573015#2 28573015#3 28573015#4 28573015#5 28573015#6"/>
    </vehicle>
    <vehicle id="81" depart="81.00">
        <route edges="-28594060#4 -28594060#3 -28594060#2 -28594060#1 -28594060#0 669665013 669665011 7635630#0 7635630#1 624439627 547793365 158617319 619526563 619526564#1 619526565 547625727 122089526 122089583#0 122089583#1 122089583#1-AddedOffRampEdge 619523286 619523287#0 619523287#0.17"/>
    </vehicle>
    <vehicle id="90" depart="90.00">
        <route edges="620377515 122089525 122089525.34 122089528#1 620377517 620377517.54 624439645 620377518 159605088 7637388#0 7637388#1 28573015#0 28573015#1 28573015#2 28573015#3 28573015#4 28573015#5 28573015#6"/>
    </vehicle>
    <vehicle id="91" depart="91.00">
        <route edges="-628341438#1 -628341438#0 gneE6 619523287#0.17 619523287#1"/>
    </vehicle>
    <vehicle id="92" depart="92.00">
        <route edges="620377515 28592666 122089583#0 122089583#1 122089583#1-AddedOffRampEdge 620377490 628341438#0 628341438#1"/>
    </vehicle>
    <vehicle id="94" depart="94.00">
        <route edges="-28594060#4 -28594060#3 -28594060#2 -28594060#1 -28594060#0 669665013 669665011 7635630#0 28572986 7637388#1 28573015#0 28573015#1 28573015#2 28573015#3 28573015#4 28573015#5 28573015#6"/>
    </vehicle>
    <vehicle id="95" depart="95.00">
        <route edges="28573015#2 28573015#3 28573015#4 28573015#5 28573015#6"/>
    </vehicle>
    <vehicle id="97" depart="97.00">
        <route edges="-28594060#4 -28594060#3 -28594060#2 -28594060#1 -28594060#0 669665013 669665011 7635630#0 28572986 7637388#1 28573015#0"/>
    </vehicle>
    <vehicle id="98" depart="98.00">
        <route edges="620377506 gneE2 620377517 620377517.54 624439645 620377518 159605088 7637388#0 7637388#1 28573015#0 28573015#1 28573015#2 28573015#3 28573015#4 28573015#5 28573015#6"/>
    </vehicle>
    <vehicle id="100" depart="100.00">
        <route edges="-28573015#6 -28573015#5 -28573015#4 -28573015#3 -28573015#2 -28573015#1 -28573015#0 28573025 28573025.46 gneE5"/>
    </vehicle>
    <vehicle id="101" depart="101.00">
        <route edges="-628341438#1 -628341438#0 -61645695 619526570#0 619526570#1"/>
    </vehicle>
    <vehicle id="102" depart="102.00">
        <route edges="-28594060#4 -28594060#3 -28594060#2 -28594060#1 -28594060#0 669665013 669665011 7635630#0 7635630#1 624439627 547793365 158617319 619526563 619526564#1 619526565 547625727 122089526 122089583#0 122089583#1 122089583#1-AddedOffRampEdge 619523286 619523287#0 619523287#0.17 619523287#1"/>
    </vehicle>
    <vehicle id="103" depart="103.00">
        <route edges="28573025 28573025.46 28573025.65 28573048 669665014 669665015#1 28594060#0 28594060#1 28594060#2 28594060#3 28594060#4"/>
    </vehicle>
    <vehicle id="104" depart="104.00">
        <route edges="28592666 122089583#0 122089583#1 122089583#1-AddedOffRampEdge 620377490 628341438#0 628341438#1"/>
    </vehicle>
    <vehicle id="109" depart="109.00">
        <route edges="669665011 7635630#0 7635630#1 624439627 547793365 158617319 619526563 619526564#1 619526565 547625727 620377496 620377502#0 620377502#1"/>
    </vehicle>
    <vehicle id="110" depart="110.00">
        <route edges="-620463733 -620377511 -112543664 28573008 28573013 547793365 158617319 619526563 619526564#1 619526565 547625727 122089526 122089583#0 122089583#1 122089583#1-AddedOffRampEdge 620377490 628341438#0 628341438#1"/>
    </vehicle>
    <vehicle id="111" depart="111.00">
        <route edges="-28594060#4 -28594060#3 -28594060#2 -28594060#1 -28594060#0 669665013 669665011 7635630#0 7635630#1 624439627 547793365 158617319 619526563 619526564#1 619526565 547625727 122089526 122089583#0 122089583#1 122089583#1-AddedOffRampEdge 620377490 628341438#0 628341438#1"/>
    </vehicle>
    <vehicle id="114" depart="114.00">
        <route edges="-28573015#1 -28573015#0 28573025 28573025.46 28573025.65 624439627 547793365 158617319 619526563 619526564#1 619526565 28592678 620377494"/>
    </vehicle>
    <vehicle id="121" depart="121.00">
        <route edges="-628341438#0 -61645695 619526570#0 619526570#1 620377514#1 619526569#1 619526568 619526567 619526566 122089528#1 620377517 620377517.54 624439645 620377518 159605088 207149704#0 207149704#1"/>
    </vehicle>
    <vehicle id="122" depart="122.00">
        <route edges="28573025.65 28573048 669665014 669665015#1"/>
    </vehicle>
    <vehicle id="123" depart="123.00">
        <route edges="-28594060#4 -28594060#3 -28594060#2 -28594060#1 -28594060#0 669665013 669665011 7635630#0 7635630#1 624439627 547793365 158617319 619526563 619526564#1 619526565 547625727 620377496 620377502#0 620377502#1 620377501#0"/>
    </vehicle>
    <vehicle id="124" depart="124.00">
        <route edges="620377518 28573047 669665014 669665015#1"/>
    </vehicle>
    <vehicle id="127" depart="127.00">
        <route edges="28573008 28573013 547793365 158617319 619526563 619526564#1 619526565 547625727"/>
    </vehicle>
    <vehicle id="129" depart="129.00">
        <route edges="-28594060#4 -28594060#3 -28594060#2 -28594060#1 -28594060#0 669665013 669665011 7635630#0 7635630#1 624439627 547793365 158617319 619526563 619526564#1 619526565 28592678 620377494 547625725"/>
    </vehicle>
    <vehicle id="132" depart="132.00">
        <route edges="547793365 158617319 619526563 619526564#1 619526565 547625727 122089526 122089583#0 122089583#1 122089583#1-AddedOffRampEdge 620377490 628341438#0 628341438#1"/>
    </vehicle>
    <vehicle id="133" depart="133.00">
        <route edges="624439627 547793365 158617319 619526563 619526564#1 619526565 547625727 620377496 620377502#0 620377502#1 620377501#0"/>
    </vehicle>
    <vehicle id="136" depart="136.00">
        <route edges="-620377511 -112543664 28573008 547793367 620377512 28573048 669665014 669665015#1 28594060#0 28594060#1 28594060#2 28594060#3 28594060#4"/>
    </vehicle>
    <vehicle id="137" depart="137.00">
        <route edges="619523290#0 619523290#1 619523288 619526570#0 619526570#1 620377514#1 619526569#1 619526568"/>
    </vehicle>
    <vehicle id="139" depart="139.00">
        <route edges="-620463733 -620377511 -112543664 28573008 28573013 547793365 158617319 619526563 619526564#1 619526565 547625727 122089526 122089583#0 122089583#1 122089583#1-AddedOffRampEdge 620377490 628341438#0 628341438#1"/>
    </vehicle>
    <vehicle id="141" depart="141.00">
        <route edges="620377515 28592666 122089583#0 122089583#1 122089583#1-AddedOffRampEdge"/>
    </vehicle>
    <vehicle id="142" depart="142.00">
        <route edges="547793367 620377512 28573048 669665014 669665015#1 28594060#0 28594060#1 28594060#2 28594060#3 28594060#4"/>
    </vehicle>
    <vehicle id="143" depart="143.00">
        <route edges="619523290#0 619523290#1 619523288 619526570#0 619526570#1 620377514#1 619526569#1 619526568 619526567 619526566 122089528#1 620377517 620377517.54 624439645 620377518 159605088 7637388#0 7637388#1 28573015#0 28573015#1 28573015#2 28573015#3 28573015#4 28573015#5 28573015#6"/>
    </vehicle>
    <vehicle id="145" depart="145.00">
        <route edges="619523290#1 619523288 619526570#0 619526570#1 620377514#1 619526569#1 619526568 619526567 619526566 122089528#1 620377517 620377517.54"/>
    </vehicle>
    <vehicle id="146" depart="146.00">
        <route edges="620377506 gneE2 620377517 620377517.54"/>
    </vehicle>
    <vehicle id="150" depart="150.00">
        <route edges="-28594060#4 -28594060#3 -28594060#2 -28594060#1 -28594060#0 669665013 669665011 7635630#0 7635630#1 207149704#0 207149704#1 112543664 620377510 620463733"/>
    </vehicle>
    <vehicle id="154" depart="154.00">
        <route edges="-112543664 28573008 547793367 620377512 28573048 669665014 669665015#1 28594060#0 28594060#1 28594060#2 28594060#3 28594060#4"/>
    </vehicle>
    <vehicle id="155" depart="155.00">
        <route edges="-628341438#1 -628341438#0 -61645695 619526570#0 619526570#1 620377514#1 619526569#1 619526568 619526567 619526566 122089528#1 620377517 620377517.54 624439645 620377518 159605088"/>
    </vehicle>
    <vehicle id="156" depart="156.00">
        <route edges="-628341438#1 -628341438#0 -61645695 619526570#0 619526570#1 620377514#1 619526569#1 619526568 619526567 619526566 122089528#1 620377517 620377517.54 624439645 620377518 28573047 669665014 669665015#1 28594060#0 28594060#1"/>
    </vehicle>
    <vehicle id="158" depart="158.00">
        <route edges="547793367 620377512 7637388#0 7637388#1 28573015#0 28573015#1 28573015#2 28573015#3 28573015#4 28573015#5 28573015#6"/>
    </vehicle>
    <vehicle id="161" depart="161.00">
        <route edges="112543664 620377510"/>
    </vehicle>
    <vehicle id="165" depart="165.00">
        <route edges="619523290#0 619523290#1 619523288 61645695 628341438#0 628341438#1"/>
    </vehicle>
    <vehicle id="167" depart="167.00">
        <route edges="-28573015#6 -28573015#5 -28573015#4 -28573015#3 -28573015#2 -28573015#1 -28573015#0 28573025 28573025.46 28573025.65 28573048 669665014 669665015#1 28594060#0"/>
    </vehicle>
    <vehicle id="170" depart="170.00">
        <route edges="-628341438#1 -628341438#0 -61645695 619526570#0 619526570#1 620377514#1 619526569#1 619526568 619526567 619526566 122089528#1 620377517 620377517.54 624439645 620377518 159605088 7637388#0 7637388#1"/>
    </vehicle>
    <vehicle id="171" depart="171.00">
        <route edges="-628341438#1 -628341438#0 -61645695 619526570#0 619526570#1 620377514#1 619526569#1 619526568 619526567 619526566 28597169 620377494 547625725"/>
    </vehicle>
    <vehicle id="173" depart="173.00">
        <route edges="620377514#1 619526569#1 619526568 619526567 619526566 122089528#1 620377517"/>
    </vehicle>
    <vehicle id="176" depart="176.00">
        <route edges="619526570#0 619526570#1 620377514#1 619526569#1 619526568 619526567 619526566 122089528#1 620377517 620377517.54 624439645 620377518 159605088 207149704#0 207149704#1 112543664 620377510 620463733"/>
    </vehicle>
    <vehicle id="177" depart="177.00">
        <route edges="-28594060#1 -28594060#0 669665013 669665011 7635630#0 7635630#1 624439627 547793365 158617319 619526563 619526564#1 619526565 547625727 122089526 122089583#0 122089583#1 122089583#1-AddedOffRampEdge 619523286 619523287#0 619523287#0.17 619523287#1"/>
    </vehicle>
    <vehicle id="178" depart="178.00">
        <route edges="28573015#4 28573015#5 28573015#6"/>
    </vehicle>
    <vehicle id="183" depart="183.00">
        <route edges="-628341438#1 -628341438#0 -61645695 619526570#0 619526570#1 620377514#1 619526569#1 619526568 619526567 619526566 122089528#1 620377517 620377517.54 624439645 620377518 159605088 207149704#0 207149704#1 112543664 620377510 620463733"/>
    </vehicle>
    <vehicle id="186" depart="186.00">
        <route edges="-620463733 -620377511 -112543664 28573008 28573013 547793365 158617319 619526563 619526564#1 619526565 547625727 122089526 122089583#0 122089583#1 122089583#1-AddedOffRampEdge 619523286 619523287#0"/>
    </vehicle>
    <vehicle id="188" depart="188.00">
        <route edges="-628341438#1 -628341438#0 -61645695 619526570#0 619526570#1 620377514#1 619526569#1 619526568 619526567 619526566 122089528#1 620377517 620377517.54 624439645 620377518 159605088 207149704#0 207149704#1 112543664 620377510 620463733"/>
    </vehicle>
    <vehicle id="189" depart="189.00">
        <route edges="-628341438#1 -628341438#0 -61645695 619526570#0 619526570#1 620377514#1 619526569#1 619526568 619526567 619526566 28597169 620377494"/>
    </vehicle>
    <vehicle id="193" depart="193.00">
        <route edges="-620463733 -620377511 -112543664 28573008 28573013 547793365 158617319 619526563 619526564#1 619526565 547625727 122089526 122089583#0"/>
    </vehicle>
    <vehicle id="194" depart="194.00">
        <route edges="-628341438#0 -61645695 619526570#0 619526570#1 620377514#1 619526569#1 619526568 619526567 gneE1 gneE1.31 620377502#0 620377502#1 620377501#0"/>
    </vehicle>
    <vehicle id="195" depart="195.00">
        <route edges="620377515 28592666 122089583#0 122089583#1"/>
    </vehicle>
    <vehicle id="197" depart="197.00">
        <route edges="-28573015#4 -28573015#3 -28573015#2 -28573015#1 -28573015#0 28573025 28573025.46 28573025.65 624439627 547793365 158617319 619526563 619526564#1 619526565 547625727 620377496 620377502#0 620377502#1 620377501#0"/>
    </vehicle>
    <vehicle id="201" depart="201.00">
        <route edges="-28573015#6 -28573015#5 -28573015#4 -28573015#3 -28573015#2 -28573015#1 -28573015#0 28573025 28573025.46 28573025.65 28573048 669665014 669665015#1"/>
    </vehicle>
    <vehicle id="204" depart="204.00">
        <route edges="-28594060#4 -28594060#3 -28594060#2 -28594060#1 -28594060#0 669665013 669665011"/>
    </vehicle>
    <vehicle id="205" depart="205.00">
        <route edges="-620463733 -620377511 -112543664 28573008 28573013 547793365 158617319 619526563 619526564#1 619526565 28592678 620377494 547625725"/>
    </vehicle>
    <vehicle id="212" depart="212.00">
        <route edges="547793365 158617319 619526563 619526564#1 619526565 547625727 122089526 122089583#0 122089583#1 122089583#1-AddedOffRampEdge 620377490"/>
    </vehicle>
    <vehicle id="215" depart="215.00">
        <route edges="619523290#0 619523290#1 619523288 619526570#0 619526570#1 620377514#1 619526569#1 619526568 619526567 gneE1"/>
    </vehicle>
    <vehicle id="221" depart="221.00">
        <route edges="-28573015#6 -28573015#5 -28573015#4 -28573015#3 -28573015#2 -28573015#1 -28573015#0 28573025 28573025.46 28573025.65 624439627 547793365 158617319 619526563 619526564#1 619526565 547625727 620377496 620377502#0 620377502#1 620377501#0"/>
    </vehicle>
    <vehicle id="222" depart="222.00">
        <route edges="619526565 547625727 122089526 122089583#0 122089583#1"/>
    </vehicle>
    <vehicle id="223" depart="223.00">
        <route edges="-28573015#1 -28573015#0 28573025 28573025.46 28573025.65 624439627 547793365 158617319 619526563 619526564#1 619526565 547625727 620377496 620377502#0 620377502#1 620377501#0"/>
    </vehicle>
    <vehicle id="226" depart="226.00">
        <route edges="-628341438#1 -628341438#0 -61645695 619526570#0 619526570#1 620377514#1 619526569#1 619526568 619526567 619526566 122089528#1 620377517 620377517.54 624439645 620377518 159605088 7637388#0 7637388#1 28573015#0 28573015#1 28573015#2 28573015#3 28573015#4 28573015#5 28573015#6"/>
    </vehicle>
    <vehicle id="228" depart="228.00">
        <route edges="-28573015#0 28573025 28573025.46 gneE5 207149704#1 112543664 620377510 620463733"/>
    </vehicle>
    <vehicle id="231" depart="231.00">
        <route edges="619523288 619526570#0 619526570#1 620377514#1 619526569#1 619526568 619526567 619526566 122089528#1 620377517 620377517.54 624439645 620377518 159605088 7637388#0 7637388#1 28573015#0 28573015#1 28573015#2 28573015#3 28573015#4 28573015#5 28573015#6"/>
    </vehicle>
    <vehicle id="235" depart="235.00">
        <route edges="7635630#0 28572986 7637388#1 28573015#0 28573015#1 28573015#2 28573015#3 28573015#4 28573015#5 28573015#6"/>
    </vehicle>
    <vehicle id="242" depart="242.00">
        <route edges="-620463733 -620377511 -112543664 28573008 28573013 547793365 158617319 619526563 619526564#1 619526565 547625727 122089526 122089583#0 122089583#1 122089583#1-AddedOffRampEdge 619523286 619523287#0 619523287#0.17"/>
    </vehicle>
    <vehicle id="243" depart="243.00">
        <route edges="28573008 28573013 547793365 158617319 619526563 619526564#1 619526565 547625727 122089526 122089583#0 122089583#1 122089583#1-AddedOffRampEdge 619523286 619523287#0 619523287#0.17 619523287#1"/>
    </vehicle>
    <vehicle id="247" depart="247.00">
        <route edges="619523290#0 619523290#1 619523288 619526570#0 619526570#1 620377514#1 619526569#1 619526568 619526567 619526566 28597169 620377494 547625725"/>
    </vehicle>
    <vehicle id="248" depart="248.00">
        <route edges="-28594060#4 -28594060#3 -28594060#2 -28594060#1 -28594060#0 669665013 669665011 7635630#0 7635630#1 624439627 547793365 158617319 619526563 619526564#1 619526565 28592678 620377494 547625725"/>
    </vehicle>
    <vehicle id="250" depart="250.00">
        <route edges="619526569#1 619526568 619526567 619526566 28597169 620377494 547625725"/>
    </vehicle>
    <vehicle id="251" depart="251.00">
        <route edges="-28573015#6 -28573015#5 -28573015#4 -28573015#3 -28573015#2 -28573015#1"/>
    </vehicle>
    <vehicle id="252" depart="252.00">
        <route edges="619523290#0 619523290#1 619523288 619526570#0 619526570#1 620377514#1 619526569#1 619526568 619526567 619526566 122089528#1 620377517 620377517.54 624439645 620377518 28573047 669665014 669665015#1 28594060#0 28594060#1"/>
    </vehicle>
    <vehicle id="255" depart="255.00">
        <route edges="620377506 gneE2 620377517 620377517.54 624439645 620377518 159605088 7637388#0 7637388#1 28573015#0 28573015#1 28573015#2 28573015#3 28573015#4 28573015#5 28573015#6"/>
    </vehicle>
    <vehicle id="257" depart="257.00">
        <route edges="gneE2 620377517 620377517.54 624439645 620377518 159605088 207149704#0 207149704#1 112543664 620377510"/>
    </vehicle>
    <vehicle id="259" depart="259.00">
        <route edges="-28573015#4 -28573015#3 -28573015#2 -28573015#1 -28573015#0 28573025 28573025.46 28573025.65 624439627 547793365 158617319 619526563 619526564#1 619526565 28592678 620377494 547625725"/>
    </vehicle>
    <vehicle id="260" depart="260.00">
        <route edges="619523290#0 619523290#1 619523288 619526570#0 619526570#1 620377514#1 619526569#1 619526568 619526567 619526566 122089528#1 620377517 620377517.54 624439645 620377518 28573047 669665014 669665015#1 28594060#0"/>
    </vehicle>
    <vehicle id="262" depart="262.00">
        <route edges="-28594060#4 -28594060#3 -28594060#2 -28594060#1 -28594060#0 669665013 669665011 7635630#0 28572986 7637388#1 28573015#0 28573015#1 28573015#2 28573015#3"/>
    </vehicle>
    <vehicle id="267" depart="267.00">
        <route edges="619526569#1 619526568 619526567 619526566 122089528#1 620377517 620377517.54 624439645 620377518 28573047 669665014 669665015#1 28594060#0 28594060#1 28594060#2 28594060#3 28594060#4"/>
    </vehicle>
    <vehicle id="270" depart="270.00">
        <route edges="620377506.61 122089526 122089583#0 122089583#1 122089583#1-AddedOffRampEdge 620377490 628341438#0 628341438#1"/>
    </vehicle>
    <vehicle id="273" depart="273.00">
        <route edges="-28573015#3 -28573015#2 -28573015#1 -28573015#0 28573025 28573025.46 gneE5 207149704#1"/>
    </vehicle>
    <vehicle id="278" depart="278.00">
        <route edges="620377515 122089525 122089525.34 620377496 620377502#0 620377502#1 620377501#0"/>
    </vehicle>
    <vehicle id="280" depart="280.00">
        <route edges="-628341438#1 -628341438#0 -61645695 619526570#0 619526570#1 620377514#1 619526569#1 619526568 619526567 619526566 122089528#1 620377517 620377517.54 624439645 620377518 159605088 207149704#0 207149704#1"/>
    </vehicle>
    <vehicle id="284" depart="284.00">
        <route edges="619526565"/>
    </vehicle>
    <vehicle id="285" depart="285.00">
        <route edges="-620463733 -620377511 -112543664 28573008 28573013 547793365 158617319 619526563 619526564#1 619526565 547625727 620377496 620377502#0 620377502#1 620377501#0"/>
    </vehicle>
    <vehicle id="289" depart="289.00">
        <route edges="28573025 28573025.46 28573025.65 28573048 669665014 669665015#1 28594060#0 28594060#1 28594060#2 28594060#3 28594060#4"/>
    </vehicle>
    <vehicle id="291" depart="291.00">
        <route edges="-28573015#0 28573025 28573025.46 28573025.65 624439627 547793365 158617319 619526563 619526564#1 619526565 28592678 620377494 547625725"/>
    </vehicle>
    <vehicle id="292" depart="292.00">
        <route edges="620377517.54 624439645 620377518 159605088 7637388#0 7637388#1 28573015#0 28573015#1 28573015#2 28573015#3 28573015#4 28573015#5 28573015#6"/>
    </vehicle>
    <vehicle id="293" depart="293.00">
        <route edges="-620463733 -620377511 -112543664 28573008 547793367 620377512 7637388#0 7637388#1 28573015#0 28573015#1 28573015#2"/>
    </vehicle>
    <vehicle id="296" depart="296.00">
        <route edges="-28573015#6 -28573015#5 -28573015#4 -28573015#3 -28573015#2 -28573015#1 -28573015#0 28573025 28573025.46 28573025.65 624439627 547793365 158617319 620377513"/>
    </vehicle>
    <vehicle id="297" depart="297.00">
        <route edges="-620463733 -620377511 -112543664 28573008 547793367 620377512 28573048 669665014 669665015#1 28594060#0 28594060#1 28594060#2 28594060#3"/>
    </vehicle>
    <vehicle id="298" depart="298.00">
        <route edges="-28573015#4 -28573015#3 -28573015#2"/>
    </vehicle>
    <vehicle id="299" depart="299.00">
        <route edges="-628341438#1 -628341438#0 -61645695 619526570#0 619526570#1 620377514#1 619526569#1 619526568 619526567 619526566 122089528#1 620377517 620377517.54 624439645 620377518 28573047 669665014 669665015#1 28594060#0 28594060#1 28594060#2 28594060#3 28594060#4"/>
    </vehicle>
    <vehicle id="301" depart="301.00">
        <route edges="619523288 619526570#0 619526570#1 620377514#1 619526569#1 619526568 619526567 619526566 122089528#1 620377517 620377517.54 624439645 620377518 159605088 207149704#0 207149704#1 112543664 620377510 620463733"/>
    </vehicle>
    <vehicle id="302" depart="302.00">
        <route edges="122089583#1 122089583#1-AddedOffRampEdge 620377490 628341438#0 628341438#1"/>
    </vehicle>
    <vehicle id="304" depart="304.00">
        <route edges="-28573015#6 -28573015#5 -28573015#4 -28573015#3 -28573015#2 -28573015#1 -28573015#0 28573025 28573025.46 28573025.65 624439627 547793365 158617319 619526563 619526564#1 619526565 547625727 122089526 122089583#0 122089583#1 122089583#1-AddedOffRampEdge 620377490 628341438#0 628341438#1"/>
    </vehicle>
    <vehicle id="306" depart="306.00">
        <route edges="620377515 122089525"/>
    </vehicle>
    <vehicle id="316" depart="316.00">