<routes>

        <route id="se4235" edges="619523290#0 619523290#1 619523288 61645695 628341438#0 628341438#1" />
        <route id="nw4235" edges="-628341438#1 -628341438#0 gneE6 619523287#0.17 619523287#1" />
        <route id="north4219" edges="620377515  122089525 122089525.34 620377496 620377502#0 620377502#1 620377501#0" />
        <route id="south4219" edges="620377506 620377506.61 28597169 620377494 547625725" />
        <route id="south4220" edges="gneE7 gneE12 624439643 66457665 665260214#0" />
        <route id="north4221" edges="-620463733 -620377511 -112543664 28573008 620377512 28573048 669665014 669665015#1 28594060#0 28594060#1 28594060#2 28594060#3 28594060#4" />
        <route id="south4221" edges="-28594060#4 -28594060#3 -28594060#2 -28594060#1 -28594060#0 669665013 669665011 7635630#0 7635630#1 207149704#0 207149704#1 112543664 620377510 620463733" />
        <route id="ne4221" edges="-620463733 -620377511 -112543664 28573008 620377512 7637388#0 7637388#1 28573015#0 28573015#1 28573015#2 28573015#3 28573015#4 28573015#5 28573015#6" />
        <route id="se4221" edges="-28594060#4 -28594060#3 -28594060#2 -28594060#1 -28594060#0 669665013 669665011 7635630#0 28572986 7637388#1 28573015#0 28573015#1 28573015#2 28573015#3 28573015#4 28573015#5 28573015#6" />
        <route id="nw4221" edges="-28573015#6 -28573015#5 -28573015#4 -28573015#3 -28573015#2 -28573015#1 -28573015#0 28573025 28573025.46 28573025.65 28573048 669665014 669665015#1 28594060#0 28594060#1 28594060#2 28594060#3 28594060#4" />
        
        <route id="r4235e4219n" edges="619523290#0 619523290#1 619523288 619526570#0 619526570#1 620377514#1 619526569#1 619526568 619526567 gneE1 gneE1.31 620377502#0 620377502#1 620377501#0" />
        <route id="r4235n4219n" edges="-628341438#1 -628341438#0 -61645695 619526570#0 619526570#1 620377514#1 619526569#1 619526568 619526567 gneE1 gneE1.31 620377502#0 620377502#1 620377501#0" />
        <route id="r4235e4219s" edges="619523290#0 619523290#1 619523288 619526570#0 619526570#1 620377514#1 619526569#1 619526568 619526567 619526566 28597169 620377494 547625725" />
        <route id="r4235n4219s" edges="-628341438#1 -628341438#0 -61645695 619526570#0 619526570#1 620377514#1 619526569#1 619526568 619526567 619526566 28597169 620377494 547625725" />
        
        <route id="r4235e4220n" edges="619523290#0 619523290#1 619523288 619526570#0 619526570#1 620377514#1 619526569#1 619526568 619526567 619526566 122089528#1 620377517 gneE3 28641509" />
        <route id="r4235n4220n" edges="-628341438#1 -628341438#0 -61645695 619526570#0 619526570#1 620377514#1 619526569#1 619526568 619526567 619526566 122089528#1 620377517 gneE3 28641509" />     
        <route id="r4235e4220s" edges="619523290#0 619523290#1 619523288 619526570#0 619526570#1 620377514#1 619526569#1 619526568 619526567 619526566 122089528#1 620377517 620377517.54 624439643 66457665 665260214#0" />
        <route id="r4235n4220s" edges="-628341438#1 -628341438#0 -61645695 619526570#0 619526570#1 620377514#1 619526569#1 619526568 619526567 619526566 122089528#1 620377517 620377517.54 624439643 66457665 665260214#0" />
        <route id="r4219s4220n" edges="620377506 gneE2 620377517 gneE3 28641509" />
        <route id="r4219s4220s" edges="620377506 gneE2 620377517 620377517.54 624439643 66457665 665260214#0" />
        <route id="r4219n4220n" edges="620377515  122089525 122089525.34 122089528#1 620377517 gneE3 28641509" />
        <route id="r4219n4220s" edges="620377515  122089525 122089525.34 122089528#1 620377517 620377517.54 624439643 66457665 665260214#0" />
        
        <route id="r4235e4221n" edges="619523290#0 619523290#1 619523288 619526570#0 619526570#1 620377514#1 619526569#1 619526568 619526567 619526566 122089528#1 620377517 620377517.54 624439645 620377518 28573047 669665014 669665015#1 28594060#0 28594060#1 28594060#2 28594060#3 28594060#4" />
        <route id="r4235n4221n" edges="-628341438#1 -628341438#0 -61645695 619526570#0 619526570#1 620377514#1 619526569#1 619526568 619526567 619526566 122089528#1 620377517 620377517.54 624439645 620377518 28573047 669665014 669665015#1 28594060#0 28594060#1 28594060#2 28594060#3 28594060#4" />      
        <route id="r4235e4221s" edges="619523290#0 619523290#1 619523288 619526570#0 619526570#1 620377514#1 619526569#1 619526568 619526567 619526566 122089528#1 620377517 620377517.54 624439645 620377518 159605088 207149704#0 207149704#1 112543664 620377510 620463733" />
        <route id="r4235n4221s" edges="-628341438#1 -628341438#0 -61645695 619526570#0 619526570#1 620377514#1 619526569#1 619526568 619526567 619526566 122089528#1 620377517 620377517.54 624439645 620377518 159605088 207149704#0 207149704#1 112543664 620377510 620463733" />
        <route id="r4219s4221n" edges="620377506 gneE2 620377517 gneE3 28641509 620377517 620377517.54 624439645 620377518 28573047 669665014 669665015#1 28594060#0 28594060#1 28594060#2 28594060#3 28594060#4" />
        <route id="r4219s4221s" edges="620377506 gneE2 620377517 gneE3 28641509 620377517 620377517.54 624439645 620377518 159605088 207149704#0 207149704#1 112543664 620377510 620463733" />
        <route id="r4219n4221n" edges="620377515  122089525 122089525.34 122089528#1 620377517 620377517.54 624439645 620377518 28573047 669665014 669665015#1 28594060#0 28594060#1 28594060#2 28594060#3 28594060#4" />
        <route id="r4219n4221s" edges="620377515  122089525 122089525.34 122089528#1 620377517 620377517.54 624439645 620377518 159605088 207149704#0 207149704#1 112543664 620377510 620463733" />
        <route id="r4220s4221n" edges="gneE7 28641508 620377518 28573047 669665014 669665015#1 28594060#0 28594060#1 28594060#2 28594060#3 28594060#4" />
        <route id="r4220s4221s" edges="gneE7 28641508 620377518 159605088 207149704#0 207149704#1 112543664 620377510 620463733" />
        
        <route id="r4235e4221e" edges="619523290#0 619523290#1 619523288 619526570#0 619526570#1 620377514#1 619526569#1 619526568 619526567 619526566 122089528#1 620377517 620377517.54 624439645 620377518 159605088 7637388#0 7637388#1 28573015#0 28573015#1 28573015#2 28573015#3 28573015#4 28573015#5 28573015#6" />
        <route id="r4235n4221e" edges="-628341438#1 -628341438#0 -61645695 619526570#0 619526570#1 620377514#1 619526569#1 619526568 619526567 619526566 122089528#1 620377517 620377517.54 624439645 620377518 159605088 7637388#0 7637388#1 28573015#0 28573015#1 28573015#2 28573015#3 28573015#4 28573015#5 28573015#6" />
        <route id="r4219s4221e" edges="620377506 gneE2 620377517  620377517.54 624439645 620377518 159605088 7637388#0 7637388#1 28573015#0 28573015#1 28573015#2 28573015#3 28573015#4 28573015#5 28573015#6" />
        <route id="r4219n4221e" edges="620377515  122089525 122089525.34 122089528#1 620377517 620377517.54 624439645 620377518 159605088 7637388#0 7637388#1 28573015#0 28573015#1 28573015#2 28573015#3 28573015#4 28573015#5 28573015#6" />
        <route id="r4220s4221e" edges="gneE7 28641508 620377518 159605088 7637388#0 7637388#1 28573015#0 28573015#1 28573015#2 28573015#3 28573015#4 28573015#5 28573015#6" />
    <vehicle id="nw4235_0" route="nw4235" depart="0" />
    <vehicle id="r4235e4219n_1" route="r4235e4219n" depart="0" />
    <vehicle id="r4235e4219s_2" route="r4235e4219s" depart="0" />
    <vehicle id="south4220_3" route="south4220" depart="1" />
    <vehicle id="north4221_4" route="north4221" depart="1" />
    <vehicle id="r4235e4219n_5" route="r4235e4219n" depart="1" />
    <vehicle id="north4221_6" route="north4221" depart="2" />
    <vehicle id="r4219s4221n_7" route="r4219s4221n" depart="2" />
    <vehicle id="r4235e4221e_8" route="r4235e4221e" depart="2" />
    <vehicle id="north4219_9" route="north4219" depart="3" />
    <vehicle id="r4235n4219s_10" route="r4235n4219s" depart="3" />
    <vehicle id="r4235e4219n_11" route="r4235e4219n" depart="4" />
    <vehicle id="r4235e4219s_12" route="r4235e4219s" depart="4" />
    <vehicle id="r4235e4219s_13" route="r4235e4219s" depart="5" />
    <vehicle id="r4235e4221n_14" route="r4235e4221n" depart="5" />
    <vehicle id="north4219_15" route="north4219" depart="6" />
    <vehicle id="r4235e4219n_16" route="r4235e4219n" depart="7" />
    <vehicle id="nw4235_17" route="nw4235" depart="8" />
    <vehicle id="north4219_18" route="north4219" depart="8" />
    <vehicle id="r4235e4219n_19" route="r4235e4219n" depart="8" />
    <vehicle id="r4235e4219n_20" route="r4235e4219n" depart="9" />
    <vehicle id="r4219n4221e_21" route="r4219n4221e" depart="9" />
    <vehicle id="north4221_22" route="north4221" depart="10" />
    <vehicle id="r4235e4221s_23" route="r4235e4221s" depart="10" />
    <vehicle id="r4235e4219s_24" route="r4235e4219s" depart="11" />
    <vehicle id="r4235e4219n_25" route="r4235e4219n" depart="12" />
    <vehicle id="se4235_26" route="se4235" depart="13" />
    <vehicle id="r4235e4219n_27" route="r4235e4219n" depart="13" />
    <vehicle id="r4235e4219s_28" route="r4235e4219s" depart="13" />
    <vehicle id="se4235_29" route="se4235" depart="14" />
    <vehicle id="r4235e4219n_30" route="r4235e4219n" depart="14" />
    <vehicle id="r4219s4221e_31" route="r4219s4221e" depart="15" />
    <vehicle id="north4221_32" route="north4221" depart="16" />
    <vehicle id="south4221_33" route="south4221" depart="16" />
    <vehicle id="south4220_34" route="south4220" depart="17" />
    <vehicle id="north4221_35" route="north4221" depart="17" />
    <vehicle id="r4235e4219n_36" route="r4235e4219n" depart="17" />
    <vehicle id="r4235e4221n_37" route="r4235e4221n" depart="17" />
    <vehicle id="r4219s4220n_38" route="r4219s4220n" depart="18" />
    <vehicle id="se4235_39" route="se4235" depart="19" />
    <vehicle id="r4235e4219s_40" route="r4235e4219s" depart="19" />
    <vehicle id="r4235e4219n_41" route="r4235e4219n" depart="20" />
    <vehicle id="north4219_42" route="north4219" depart="21" />
    <vehicle id="r4235e4219n_43" route="r4235e4219n" depart="21" />
    <vehicle id="south4219_44" route="south4219" depart="22" />
    <vehicle id="r4235e4219s_45" route="r4235e4219s" depart="22" />
    <vehicle id="se4235_46" route="se4235" depart="23" />
    <vehicle id="r4235e4221n_47" route="r4235e4221n" depart="23" />
    <vehicle id="south4220_48" route="south4220" depart="25" />
    <vehicle id="north4219_49" route="north4219" depart="26" />
    <vehicle id="south4220_50" route="south4220" depart="26" />
    <vehicle id="r4219s4221s_51" route="r4219s4221s" depart="27" />
    <vehicle id="r4219s4221e_52" route="r4219s4221e" depart="27" />
    <vehicle id="north4219_53" route="north4219" depart="28" />
    <vehicle id="south4219_54" route="south4219" depart="28" />
    <vehicle id="r4235e4219n_55" route="r4235e4219n" depart="28" />
    <vehicle id="se4235_56" route="se4235" depart="29" />
    <vehicle id="r4235e4219s_57" route="r4235e4219s" depart="29" />
    <vehicle id="south4220_58" route="south4220" depart="30" />
    <vehicle id="r4235n4221n_59" route="r4235n4221n" depart="30" />
    <vehicle id="north4219_60" route="north4219" depart="31" />
    <vehicle id="south4219_61" route="south4219" depart="31" />
    <vehicle id="r4235e4219n_62" route="r4235e4219n" depart="31" />
    <vehicle id="se4235_63" route="se4235" depart="32" />
    <vehicle id="nw4235_64" route="nw4235" depart="32" />
    <vehicle id="r4235e4219n_65" route="r4235e4219n" depart="32" />
    <vehicle id="north4219_66" route="north4219" depart="33" />
    <vehicle id="north4219_67" route="north4219" depart="34" />
    <vehicle id="south4219_68" route="south4219" depart="34" />
    <vehicle id="south4220_69" route="south4220" depart="34" />
    <vehicle id="r4235e4219n_70" route="r4235e4219n" depart="34" />
    <vehicle id="r4235e4221n_71" route="r4235e4221n" depart="34" />
    <vehicle id="r4235e4221e_72" route="r4235e4221e" depart="34" />
    <vehicle id="south4220_73" route="south4220" depart="37" />
    <vehicle id="north4221_74" route="north4221" depart="37" />
    <vehicle id="r4235e4219n_75" route="r4235e4219n" depart="37" />
    <vehicle id="r4235e4221n_76" route="r4235e4221n" depart="37" />
    <vehicle id="r4235e4221e_77" route="r4235e4221e" depart="37" />
    <vehicle id="north4219_78" route="north4219" depart="38" />
    <vehicle id="north4221_79" route="north4221" depart="38" />
    <vehicle id="south4219_80" route="south4219" depart="39" />
    <vehicle id="north4219_81" route="north4219" depart="40" />
    <vehicle id="r4235e4219n_82" route="r4235e4219n" depart="41" />
    <vehicle id="north4219_83" route="north4219" depart="42" />
    <vehicle id="r4235e4219n_84" route="r4235e4219n" depart="43" />
    <vehicle id="r4235e4219n_85" route="r4235e4219n" depart="44" />
    <vehicle id="north4219_86" route="north4219" depart="46" />
    <vehicle id="r4235e4219n_87" route="r4235e4219n" depart="46" />
    <vehicle id="r4220s4221e_88" route="r4220s4221e" depart="46" />
    <vehicle id="r4235e4219n_89" route="r4235e4219n" depart="47" />
    <vehicle id="south4221_90" route="south4221" depart="49" />
    <vehicle id="north4219_91" route="north4219" depart="50" />
    <vehicle id="r4235e4219s_92" route="r4235e4219s" depart="50" />
    <vehicle id="r4235e4221s_93" route="r4235e4221s" depart="50" />
    <vehicle id="south4219_94" route="south4219" depart="51" />
    <vehicle id="se4235_95" route="se4235" depart="52" />
    <vehicle id="r4235e4219n_96" route="r4235e4219n" depart="52" />
    <vehicle id="se4235_97" route="se4235" depart="53" />
    <vehicle id="nw4235_98" route="nw4235" depart="53" />
    <vehicle id="north4219_99" route="north4219" depart="54" />
    <vehicle id="south4221_100" route="south4221" depart="54" />
    <vehicle id="se4235_101" route="se4235" depart="55" />
    <vehicle id="north4219_102" route="north4219" depart="55" />
    <vehicle id="north4221_103" route="north4221" depart="56" />
    <vehicle id="r4235e4219n_104" route="r4235e4219n" depart="56" />
    <vehicle id="south4219_105" route="south4219" depart="57" />
    <vehicle id="r4235n4219n_106" route="r4235n4219n" depart="57" />
    <vehicle id="south4219_107" route="south4219" depart="58" />
    <vehicle id="south4221_108" route="south4221" depart="58" />
    <vehicle id="ne4221_109" route="ne4221" depart="58" />
    <vehicle id="r4235e4221n_110" route="r4235e4221n" depart="58" />
    <vehicle id="north4221_111" route="north4221" depart="59" />
    <vehicle id="r4235e4219n_112" route="r4235e4219n" depart="59" />
    <vehicle id="r4235e4221e_113" route="r4235e4221e" depart="59" />
    <vehicle id="se4235_114" route="se4235" depart="60" />
    <vehicle id="nw4235_115" route="nw4235" depart="60" />
    <vehicle id="north4221_116" route="north4221" depart="60" />
    <vehicle id="r4235e4219n_117" route="r4235e4219n" depart="60" />
    <vehicle id="r4235e4219s_118" route="r4235e4219s" depart="60" />
    <vehicle id="r4235e4221e_119" route="r4235e4221e" depart="60" />
    <vehicle id="r4220s4221e_120" route="r4220s4221e" depart="62" />
    <vehicle id="r4235e4221e_121" route="r4235e4221e" depart="65" />
    <vehicle id="north4221_122" route="north4221" depart="66" />
    <vehicle id="r4235e4219n_123" route="r4235e4219n" depart="67" />
    <vehicle id="se4235_124" route="se4235" depart="68" />
    <vehicle id="r4219s4221s_125" route="r4219s4221s" depart="68" />
    <vehicle id="south4219_126" route="south4219" depart="69" />
    <vehicle id="r4235e4219n_127" route="r4235e4219n" depart="69" />
    <vehicle id="r4235e4221e_128" route="r4235e4221e" depart="69" />
    <vehicle id="r4219s4221e_129" route="r4219s4221e" depart="69" />
    <vehicle id="north4219_130" route="north4219" depart="70" />
    <vehicle id="south4221_131" route="south4221" depart="70" />
    <vehicle id="r4235e4221e_132" route="r4235e4221e" depart="70" />
    <vehicle id="north4219_133" route="north4219" depart="71" />
    <vehicle id="r4235e4219n_134" route="r4235e4219n" depart="71" />
    <vehicle id="nw4235_135" route="nw4235" depart="72" />
    <vehicle id="north4219_136" route="north4219" depart="72" />
    <vehicle id="south4220_137" route="south4220" depart="73" />
    <vehicle id="r4219s4221e_138" route="r4219s4221e" depart="73" />
    <vehicle id="r4235e4219n_139" route="r4235e4219n" depart="74" />
    <vehicle id="north4219_140" route="north4219" depart="75" />
    <vehicle id="r4235e4221e_141" route="r4235e4221e" depart="75" />
    <vehicle id="north4221_142" route="north4221" depart="76" />
    <vehicle id="r4235e4221s_143" route="r4235e4221s" depart="76" />
    <vehicle id="r4235e4221e_144" route="r4235e4221e" depart="76" />
    <vehicle id="nw4235_145" route="nw4235" depart="77" />
    <vehicle id="north4221_146" route="north4221" depart="77" />
    <vehicle id="r4235e4219n_147" route="r4235e4219n" depart="77" />
    <vehicle id="north4221_148" route="north4221" depart="78" />
    <vehicle id="r4235e4219n_149" route="r4235e4219n" depart="78" />
    <vehicle id="nw4235_150" route="nw4235" depart="79" />
    <vehicle id="r4220s4221n_151" route="r4220s4221n" depart="80" />
    <vehicle id="r4235e4219n_152" route="r4235e4219n" depart="81" />
    <vehicle id="r4235e4219s_153" route="r4235e4219s" depart="81" />
    <vehicle id="r4235e4221n_154" route="r4235e4221n" depart="81" />
    <vehicle id="north4219_155" route="north4219" depart="82" />
    <vehicle id="r4235e4219n_156" route="r4235e4219n" depart="82" />
    <vehicle id="r4235e4219s_157" route="r4235e4219s" depart="82" />
    <vehicle id="r4235e4221e_158" route="r4235e4221e" depart="83" />
    <vehicle id="north4219_159" route="north4219" depart="85" />
    <vehicle id="nw4235_160" route="nw4235" depart="86" />
    <vehicle id="r4235e4221n_161" route="r4235e4221n" depart="86" />
    <vehicle id="south4221_162" route="south4221" depart="87" />
    <vehicle id="se4235_163" route="se4235" depart="88" />
    <vehicle id="north4221_164" route="north4221" depart="88" />
    <vehicle id="north4221_165" route="north4221" depart="89" />
    <vehicle id="r4220s4221e_166" route="r4220s4221e" depart="89" />
    <vehicle id="north4219_167" route="north4219" depart="90" />
    <vehicle id="north4221_168" route="north4221" depart="90" />
    <vehicle id="north4219_169" route="north4219" depart="91" />
    <vehicle id="south4221_170" route="south4221" depart="91" />
    <vehicle id="north4219_171" route="north4219" depart="92" />
    <vehicle id="r4235e4219n_172" route="r4235e4219n" depart="93" />
    <vehicle id="south4220_173" route="south4220" depart="94" />
    <vehicle id="north4219_174" route="north4219" depart="95" />
    <vehicle id="south4219_175" route="south4219" depart="95" />
    <vehicle id="r4235e4219s_176" route="r4235e4219s" depart="95" />
    <vehicle id="north4221_177" route="north4221" depart="96" />
    <vehicle id="north4219_178" route="north4219" depart="97" />
    <vehicle id="south4219_179" route="south4219" depart="98" />
    <vehicle id="north4221_180" route="north4221" depart="98" />
    <vehicle id="r4235e4219n_181" route="r4235e4219n" depart="98" />
    <vehicle id="r4235e4219n_182" route="r4235e4219n" depart="99" />
    <vehicle id="r4235e4219s_183" route="r4235e4219s" depart="100" />
    <vehicle id="north4219_184" route="north4219" depart="101" />
    <vehicle id="south4219_185" route="south4219" depart="101" />
    <vehicle id="se4235_186" route="se4235" depart="102" />
    <vehicle id="north4219_187" route="north4219" depart="102" />
    <vehicle id="north4221_188" route="north4221" depart="102" />
    <vehicle id="north4221_189" route="north4221" depart="103" />
    <vehicle id="r4235n4221e_190" route="r4235n4221e" depart="103" />
    <vehicle id="north4219_191" route="north4219" depart="104" />
    <vehicle id="r4235e4219n_192" route="r4235e4219n" depart="105" />
    <vehicle id="r4235e4221e_193" route="r4235e4221e" depart="106" />
    <vehicle id="nw4235_194" route="nw4235" depart="107" />
    <vehicle id="r4235e4219n_195" route="r4235e4219n" depart="107" />
    <vehicle id="nw4235_196" route="nw4235" depart="108" />
    <vehicle id="se4235_197" route="se4235" depart="109" />
    <vehicle id="north4221_198" route="north4221" depart="109" />
    <vehicle id="nw4235_199" route="nw4235" depart="110" />
    <vehicle id="north4219_200" route="north4219" depart="110" />
    <vehicle id="south4219_201" route="south4219" depart="110" />
    <vehicle id="south4221_202" route="south4221" depart="110" />
    <vehicle id="r4220s4221s_203" route="r4220s4221s" depart="110" />
    <vehicle id="south4219_204" route="south4219" depart="111" />
    <vehicle id="south4220_205" route="south4220" depart="111" />
    <vehicle id="r4235e4219n_206" route="r4235e4219n" depart="111" />
    <vehicle id="se4235_207" route="se4235" depart="112" />
    <vehicle id="r4235e4219n_208" route="r4235e4219n" depart="112" />
    <vehicle id="r4235e4221e_209" route="r4235e4221e" depart="112" />
    <vehicle id="north4219_210" route="north4219" depart="113" />
    <vehicle id="north4219_211" route="north4219" depart="114" />
    <vehicle id="r4235e4219n_212" route="r4235e4219n" depart="114" />
    <vehicle id="r4235e4221e_213" route="r4235e4221e" depart="114" />
    <vehicle id="north4221_214" route="north4221" depart="115" />
    <vehicle id="r4235e4219s_215" route="r4235e4219s" depart="116" />
    <vehicle id="r4235e4221e_216" route="r4235e4221e" depart="116" />
    <vehicle id="r4219s4221n_217" route="r4219s4221n" depart="117" />
    <vehicle id="r4220s4221n_218" route="r4220s4221n" depart="117" />
    <vehicle id="r4219s4221e_219" route="r4219s4221e" depart="117" />
    <vehicle id="north4219_220" route="north4219" depart="118" />
    <vehicle id="r4235e4219n_221" route="r4235e4219n" depart="119" />
    <vehicle id="r4235e4221n_222" route="r4235e4221n" depart="119" />
    <vehicle id="r4235e4221e_223" route="r4235e4221e" depart="119" />
    <vehicle id="r4235n4219n_224" route="r4235n4219n" depart="120" />
    <vehicle id="r4235e4219s_225" route="r4235e4219s" depart="120" />
    <vehicle id="r4235e4221s_226" route="r4235e4221s" depart="121" />
    <vehicle id="south4219_227" route="south4219" depart="122" />
    <vehicle id="north4221_228" route="north4221" depart="122" />
    <vehicle id="r4235e4219n_229" route="r4235e4219n" depart="124" />
    <vehicle id="south4221_230" route="south4221" depart="125" />
    <vehicle id="nw4235_231" route="nw4235" depart="126" />
    <vehicle id="south4219_232" route="south4219" depart="126" />
    <vehicle id="r4235e4221e_233" route="r4235e4221e" depart="126" />
    <vehicle id="north4219_234" route="north4219" depart="127" />
    <vehicle id="ne4221_235" route="ne4221" depart="127" />
    <vehicle id="se4235_236" route="se4235" depart="128" />
    <vehicle id="south4221_237" route="south4221" depart="128" />
    <vehicle id="r4235e4219n_238" route="r4235e4219n" depart="128" />
    <vehicle id="se4235_239" route="se4235" depart="129" />
    <vehicle id="north4221_240" route="north4221" depart="129" />
    <vehicle id="r4235e4219n_241" route="r4235e4219n" depart="129" />
    <vehicle id="r4235e4219n_242" route="r4235e4219n" depart="130" />
    <vehicle id="south4221_243" route="south4221" depart="131" />
    <vehicle id="r4235e4219n_244" route="r4235e4219n" depart="133" />
    <vehicle id="r4235e4220s_245" route="r4235e4220s" depart="133" />
    <vehicle id="r4235e4221n_246" route="r4235e4221n" depart="133" />
    <vehicle id="r4235e4221e_247" route="r4235e4221e" depart="133" />
    <vehicle id="nw4235_248" route="nw4235" depart="134" />
    <vehicle id="north4221_249" route="north4221" depart="135" />
    <vehicle id="r4235e4219n_250" route="r4235e4219n" depart="135" />
    <vehicle id="r4235e4220n_251" route="r4235e4220n" depart="135" />
    <vehicle id="r4235e4221e_252" route="r4235e4221e" depart="135" />
    <vehicle id="se4235_253" route="se4235" depart="136" />
    <vehicle id="north4219_254" route="north4219" depart="137" />
    <vehicle id="north4221_255" route="north4221" depart="137" />
    <vehicle id="r4235e4219n_256" route="r4235e4219n" depart="137" />
    <vehicle id="r4235n4221e_257" route="r4235n4221e" depart="137" />
    <vehicle id="se4235_258" route="se4235" depart="138" />
    <vehicle id="north4219_259" route="north4219" depart="138" />
    <vehicle id="r4235e4219n_260" route="r4235e4219n" depart="138" />
    <vehicle id="south4219_261" route="south4219" depart="140" />
    <vehicle id="south4220_262" route="south4220" depart="140" />
    <vehicle id="south4221_263" route="south4221" depart="141" />
    <vehicle id="r4235n4219n_264" route="r4235n4219n" depart="141" />
    <vehicle id="r4235e4221n_265" route="r4235e4221n" depart="142" />
    <vehicle id="north4219_266" route="north4219" depart="143" />
    <vehicle id="r4235e4219s_267" route="r4235e4219s" depart="144" />
    <vehicle id="south4219_268" route="south4219" depart="145" />
    <vehicle id="r4235e4219n_269" route="r4235e4219n" depart="145" />
    <vehicle id="r4220s4221n_270" route="r4220s4221n" depart="145" />
    <vehicle id="r4235e4221n_271" route="r4235e4221n" depart="146" />
    <vehicle id="north4219_272" route="north4219" depart="147" />
    <vehicle id="north4219_273" route="north4219" depart="148" />
    <vehicle id="south4219_274" route="south4219" depart="148" />
    <vehicle id="north4221_275" route="north4221" depart="148" />
    <vehicle id="r4235e4221s_276" route="r4235e4221s" depart="148" />
    <vehicle id="north4221_277" route="north4221" depart="149" />
    <vehicle id="south4221_278" route="south4221" depart="149" />
    <vehicle id="r4235e4221e_279" route="r4235e4221e" depart="149" />
    <vehicle id="south4220_280" route="south4220" depart="150" />
    <vehicle id="north4221_281" route="north4221" depart="150" />
    <vehicle id="r4235e4221e_282" route="r4235e4221e" depart="150" />
    <vehicle id="north4219_283" route="north4219" depart="151" />
    <vehicle id="se4235_284" route="se4235" depart="152" />
    <vehicle id="north4219_285" route="north4219" depart="152" />
    <vehicle id="south4220_286" route="south4220" depart="152" />
    <vehicle id="r4235e4221e_287" route="r4235e4221e" depart="152" />
    <vehicle id="north4221_288" route="north4221" depart="153" />
    <vehicle id="r4235e4219n_289" route="r4235e4219n" depart="154" />
    <vehicle id="r4235e4221n_290" route="r4235e4221n" depart="154" />
    <vehicle id="r4220s4221n_291" route="r4220s4221n" depart="154" />
    <vehicle id="north4221_292" route="north4221" depart="155" />
    <vehicle id="r4235e4221e_293" route="r4235e4221e" depart="155" />
    <vehicle id="north4221_294" route="north4221" depart="156" />
    <vehicle id="r4235e4221e_295" route="r4235e4221e" depart="156" />
    <vehicle id="north4219_296" route="north4219" depart="157" />
    <vehicle id="nw4235_297" route="nw4235" depart="158" />
    <vehicle id="r4235n4221e_298" route="r4235n4221e" depart="158" />
    <vehicle id="south4219_299" route="south4219" depart="161" />
    <vehicle id="r4235e4219n_300" route="r4235e4219n" depart="161" />
    <vehicle id="r4235e4221e_301" route="r4235e4221e" depart="161" />
    <vehicle id="se4235_302" route="se4235" depart="162" />
    <vehicle id="south4219_303" route="south4219" depart="162" />
    <vehicle id="north4221_304" route="north4221" depart="162" />
    <vehicle id="r4235e4221e_305" route="r4235e4221e" depart="163" />
    <vehicle id="north4219_306" route="north4219" depart="164" />
    <vehicle id="south4219_307" route="south4219" depart="164" />
    <vehicle id="north4221_308" route="north4221" depart="164" />
    <vehicle id="r4235e4219n_309" route="r4235e4219n" depart="164" />
    <vehicle id="r4219s4221n_310" route="r4219s4221n" depart="164" />
    <vehicle id="north4219_311" route="north4219" depart="166" />
    <vehicle id="south4219_312" route="south4219" depart="166" />
    <vehicle id="south4221_313" route="south4221" depart="166" />
    <vehicle id="se4235_314" route="se4235" depart="167" />
    <vehicle id="north4221_315" route="north4221" depart="167" />
    <vehicle id="r4235e4221n_316" route="r4235e4221n" depart="168" />
    <vehicle id="r4219s4221e_317" route="r4219s4221e" depart="168" />
    <vehicle id="r4235e4221e_318" route="r4235e4221e" depart="170" />
    <vehicle id="north4219_319" route="north4219" depart="171" />
    <vehicle id="r4235e4219n_320" route="r4235e4219n" depart="171" />
    <vehicle id="north4219_321" route="north4219" depart="172" />
    <vehicle id="south4219_322" route="south4219" depart="172" />
    <vehicle id="r4235e4219n_323" route="r4235e4219n" depart="172" />
    <vehicle id="north4219_324" route="north4219" depart="173" />
    <vehicle id="r4235e4219n_325" route="r4235e4219n" depart="173" />
    <vehicle id="north4221_326" route="north4221" depart="175" />
    <vehicle id="r4235e4221n_327" route="r4235e4221n" depart="175" />
    <vehicle id="r4235e4219n_328" route="r4235e4219n" depart="176" />
    <vehicle id="se4235_329" route="se4235" depart="178" />
    <vehicle id="south4219_330" route="south4219" depart="178" />
    <vehicle id="r4219s4221e_331" route="r4219s4221e" depart="178" />
    <vehicle id="north4221_332" route="north4221" depart="179" />
    <vehicle id="r4235n4219n_333" route="r4235n4219n" depart="179" />
    <vehicle id="r4235e4221e_334" route="r4235e4221e" depart="179" />
    <vehicle id="north4219_335" route="north4219" depart="180" />
    <vehicle id="r4235e4221n_336" route="r4235e4221n" depart="180" />
    <vehicle id="south4220_337" route="south4220" depart="181" />
    <vehicle id="north4221_338" route="north4221" depart="181" />
    <vehicle id="south4221_339" route="south4221" depart="181" />
    <vehicle id="nw4235_340" route="nw4235" depart="182" />
    <vehicle id="north4219_341" route="north4219" depart="182" />
    <vehicle id="r4220s4221e_342" route="r4220s4221e" depart="183" />
    <vehicle id="r4235e4219n_343" route="r4235e4219n" depart="184" />
    <vehicle id="r4235e4221e_344" route="r4235e4221e" depart="184" />